/*---------------------------------------------------------------------------*\
  =========                 |
  \\      /  F ield         | OpenFOAM: The Open Source CFD Toolbox
   \\    /   O peration     | Website:  https://openfoam.org
    \\  /    A nd           | Version:  9
     \\/     M anipulation  |
\*---------------------------------------------------------------------------*/
Build  : 9
Exec   : shallowWaterFoam
Date   : May 07 2022
Time   : 00:26:07
Host   : "GFreya"
PID    : 15679
I/O    : uncollated
Case   : /root/OpenFOAM/root-9/run/tutorials/incompressible/shallowWaterFoam/squareBump
nProcs : 1
sigFpe : Enabling floating point exception trapping (FOAM_SIGFPE).
fileModificationChecking : Monitoring run-time modified files using timeStampMaster (fileModificationSkew 10)
allowSystemOperations : Allowing user-supplied system call operations

// * * * * * * * * * * * * * * * * * * * * * * * * * * * * * * * * * * * * * //
Create time

Create mesh for time = 0


PIMPLE: No convergence criteria found


PIMPLE: No corrector convergence criteria found
        Calculations will do 3 corrections


PIMPLE: Operating solver in transient mode with 3 outer correctors



Reading gravitationalProperties
Reading field h

Reading field h0 if present

Creating field hU

Reading field U

Creating field hTotal for post processing

Reading/calculating face flux field phi

Creating Coriolis Force

Starting time loop


 Time = 0.1

Courant number mean: 0.200006 max: 0.205556
Gravity wave Courant number max: 0.626418
PIMPLE: Iteration 1
smoothSolver:  Solving for hUx, Initial residual = 0.0546117, Final residual = 0.00386471, No Iterations 1
smoothSolver:  Solving for hUy, Initial residual = 1, Final residual = 0.0766549, No Iterations 1
DICPCG:  Solving for h, Initial residual = 0.0294652, Final residual = 2.19685e-11, No Iterations 7
PIMPLE: Iteration 2
smoothSolver:  Solving for hUx, Initial residual = 0.0431913, Final residual = 0.00312578, No Iterations 1
smoothSolver:  Solving for hUy, Initial residual = 0.0925981, Final residual = 0.0068454, No Iterations 1
DICPCG:  Solving for h, Initial residual = 0.00540023, Final residual = 4.15792e-11, No Iterations 6
PIMPLE: Iteration 3
smoothSolver:  Solving for hUx, Initial residual = 0.00387223, Final residual = 4.68064e-11, No Iterations 7
smoothSolver:  Solving for hUy, Initial residual = 0.0118915, Final residual = 9.23154e-12, No Iterations 8
DICPCG:  Solving for h, Initial residual = 0.000372805, Final residual = 5.97782e-11, No Iterations 5
ExecutionTime = 0.02 s  ClockTime = 0 s


 Time = 0.2

Courant number mean: 0.200055 max: 0.209158
Gravity wave Courant number max: 0.626873
PIMPLE: Iteration 1
smoothSolver:  Solving for hUx, Initial residual = 0.0715899, Final residual = 0.00286162, No Iterations 1
smoothSolver:  Solving for hUy, Initial residual = 0.337869, Final residual = 0.0133873, No Iterations 1
DICPCG:  Solving for h, Initial residual = 0.0298158, Final residual = 1.21393e-12, No Iterations 5
PIMPLE: Iteration 2
smoothSolver:  Solving for hUx, Initial residual = 0.0157512, Final residual = 0.000607476, No Iterations 1
smoothSolver:  Solving for hUy, Initial residual = 0.00913472, Final residual = 0.000360979, No Iterations 1
DICPCG:  Solving for h, Initial residual = 0.00137765, Final residual = 6.23571e-12, No Iterations 4
PIMPLE: Iteration 3
smoothSolver:  Solving for hUx, Initial residual = 0.00144391, Final residual = 4.68668e-12, No Iterations 6
smoothSolver:  Solving for hUy, Initial residual = 0.000409039, Final residual = 3.71527e-11, No Iterations 5
DICPCG:  Solving for h, Initial residual = 0.000113961, Final residual = 6.21258e-11, No Iterations 3
ExecutionTime = 0.04 s  ClockTime = 0 s


 Time = 0.3

Courant number mean: 0.200108 max: 0.212265
Gravity wave Courant number max: 0.627361
PIMPLE: Iteration 1
smoothSolver:  Solving for hUx, Initial residual = 0.110017, Final residual = 0.00431967, No Iterations 1
smoothSolver:  Solving for hUy, Initial residual = 0.265446, Final residual = 0.0105216, No Iterations 1
DICPCG:  Solving for h, Initial residual = 0.0266761, Final residual = 9.31748e-13, No Iterations 5
PIMPLE: Iteration 2
smoothSolver:  Solving for hUx, Initial residual = 0.0195997, Final residual = 0.000776696, No Iterations 1
smoothSolver:  Solving for hUy, Initial residual = 0.00285562, Final residual = 0.000111296, No Iterations 1
DICPCG:  Solving for h, Initial residual = 0.00160559, Final residual = 7.49802e-12, No Iterations 4
PIMPLE: Iteration 3
smoothSolver:  Solving for hUx, Initial residual = 0.00167394, Final residual = 5.52657e-12, No Iterations 6
smoothSolver:  Solving for hUy, Initial residual = 0.000305264, Final residual = 2.75708e-11, No Iterations 5
DICPCG:  Solving for h, Initial residual = 0.00013849, Final residual = 7.41111e-11, No Iterations 3
ExecutionTime = 0.05 s  ClockTime = 0 s


 Time = 0.4

Courant number mean: 0.200195 max: 0.216324
Gravity wave Courant number max: 0.627955
PIMPLE: Iteration 1
smoothSolver:  Solving for hUx, Initial residual = 0.118299, Final residual = 0.00479078, No Iterations 1
smoothSolver:  Solving for hUy, Initial residual = 0.176825, Final residual = 0.00703505, No Iterations 1
DICPCG:  Solving for h, Initial residual = 0.043635, Final residual = 1.67713e-12, No Iterations 5
PIMPLE: Iteration 2
smoothSolver:  Solving for hUx, Initial residual = 0.0137819, Final residual = 0.000541429, No Iterations 1
smoothSolver:  Solving for hUy, Initial residual = 0.00453323, Final residual = 0.000175746, No Iterations 1
DICPCG:  Solving for h, Initial residual = 0.00107425, Final residual = 3.70341e-12, No Iterations 4
PIMPLE: Iteration 3
smoothSolver:  Solving for hUx, Initial residual = 0.00106458, Final residual = 9.62887e-11, No Iterations 5
smoothSolver:  Solving for hUy, Initial residual = 0.000119573, Final residual = 1.03111e-11, No Iterations 5
DICPCG:  Solving for h, Initial residual = 8.29177e-05, Final residual = 4.00699e-11, No Iterations 3
ExecutionTime = 0.05 s  ClockTime = 0 s


 Time = 0.5

Courant number mean: 0.200255 max: 0.218078
Gravity wave Courant number max: 0.628498
PIMPLE: Iteration 1
smoothSolver:  Solving for hUx, Initial residual = 0.107549, Final residual = 0.00436312, No Iterations 1
smoothSolver:  Solving for hUy, Initial residual = 0.11727, Final residual = 0.00475314, No Iterations 1
DICPCG:  Solving for h, Initial residual = 0.0449625, Final residual = 1.43234e-12, No Iterations 5
PIMPLE: Iteration 2
smoothSolver:  Solving for hUx, Initial residual = 0.0168775, Final residual = 0.000654991, No Iterations 1
smoothSolver:  Solving for hUy, Initial residual = 0.0039171, Final residual = 0.000155852, No Iterations 1
DICPCG:  Solving for h, Initial residual = 0.00159707, Final residual = 6.3355e-12, No Iterations 4
PIMPLE: Iteration 3
smoothSolver:  Solving for hUx, Initial residual = 0.00142541, Final residual = 4.51145e-12, No Iterations 6
smoothSolver:  Solving for hUy, Initial residual = 0.000175838, Final residual = 1.52513e-11, No Iterations 5
DICPCG:  Solving for h, Initial residual = 0.000119742, Final residual = 6.11356e-11, No Iterations 3
ExecutionTime = 0.06 s  ClockTime = 0 s


 Time = 0.6

Courant number mean: 0.200295 max: 0.217633
Gravity wave Courant number max: 0.628692
PIMPLE: Iteration 1
smoothSolver:  Solving for hUx, Initial residual = 0.097701, Final residual = 0.00388648, No Iterations 1
smoothSolver:  Solving for hUy, Initial residual = 0.117803, Final residual = 0.00465521, No Iterations 1
DICPCG:  Solving for h, Initial residual = 0.0473056, Final residual = 1.20783e-12, No Iterations 5
PIMPLE: Iteration 2
smoothSolver:  Solving for hUx, Initial residual = 0.0174202, Final residual = 0.00067866, No Iterations 1
smoothSolver:  Solving for hUy, Initial residual = 0.00302061, Final residual = 0.000119066, No Iterations 1
DICPCG:  Solving for h, Initial residual = 0.00170336, Final residual = 6.67464e-12, No Iterations 4
PIMPLE: Iteration 3
smoothSolver:  Solving for hUx, Initial residual = 0.00146602, Final residual = 4.71896e-12, No Iterations 6
smoothSolver:  Solving for hUy, Initial residual = 0.000173446, Final residual = 1.54836e-11, No Iterations 5
DICPCG:  Solving for h, Initial residual = 0.000132337, Final residual = 6.44239e-11, No Iterations 3
ExecutionTime = 0.06 s  ClockTime = 0 s


 Time = 0.7

Courant number mean: 0.200324 max: 0.216987
Gravity wave Courant number max: 0.628375
PIMPLE: Iteration 1
smoothSolver:  Solving for hUx, Initial residual = 0.101982, Final residual = 0.00405187, No Iterations 1
smoothSolver:  Solving for hUy, Initial residual = 0.114323, Final residual = 0.00456468, No Iterations 1
DICPCG:  Solving for h, Initial residual = 0.0557306, Final residual = 1.32371e-12, No Iterations 5
PIMPLE: Iteration 2
smoothSolver:  Solving for hUx, Initial residual = 0.0169128, Final residual = 0.000657056, No Iterations 1
smoothSolver:  Solving for hUy, Initial residual = 0.00330634, Final residual = 0.000129777, No Iterations 1
DICPCG:  Solving for h, Initial residual = 0.00172849, Final residual = 5.88755e-12, No Iterations 4
PIMPLE: Iteration 3
smoothSolver:  Solving for hUx, Initial residual = 0.00139236, Final residual = 4.55868e-12, No Iterations 6
smoothSolver:  Solving for hUy, Initial residual = 0.000137876, Final residual = 1.21928e-11, No Iterations 5
DICPCG:  Solving for h, Initial residual = 0.000131776, Final residual = 6.06117e-11, No Iterations 3
ExecutionTime = 0.07 s  ClockTime = 0 s


 Time = 0.8

Courant number mean: 0.200347 max: 0.216577
Gravity wave Courant number max: 0.628232
PIMPLE: Iteration 1
smoothSolver:  Solving for hUx, Initial residual = 0.10867, Final residual = 0.00434678, No Iterations 1
smoothSolver:  Solving for hUy, Initial residual = 0.111767, Final residual = 0.00447777, No Iterations 1
DICPCG:  Solving for h, Initial residual = 0.0582986, Final residual = 1.2382e-12, No Iterations 5
PIMPLE: Iteration 2
smoothSolver:  Solving for hUx, Initial residual = 0.0188394, Final residual = 0.000737173, No Iterations 1
smoothSolver:  Solving for hUy, Initial residual = 0.00340497, Final residual = 0.000134039, No Iterations 1
DICPCG:  Solving for h, Initial residual = 0.00197599, Final residual = 6.20927e-12, No Iterations 4
PIMPLE: Iteration 3
smoothSolver:  Solving for hUx, Initial residual = 0.00150263, Final residual = 4.60267e-12, No Iterations 6
smoothSolver:  Solving for hUy, Initial residual = 0.000151889, Final residual = 1.33902e-11, No Iterations 5
DICPCG:  Solving for h, Initial residual = 0.000145091, Final residual = 6.11453e-11, No Iterations 3
ExecutionTime = 0.07 s  ClockTime = 0 s


 Time = 0.9

Courant number mean: 0.200369 max: 0.216408
Gravity wave Courant number max: 0.628025
PIMPLE: Iteration 1
smoothSolver:  Solving for hUx, Initial residual = 0.116931, Final residual = 0.00462154, No Iterations 1
smoothSolver:  Solving for hUy, Initial residual = 0.111244, Final residual = 0.00445259, No Iterations 1
DICPCG:  Solving for h, Initial residual = 0.0613003, Final residual = 1.23565e-12, No Iterations 5
PIMPLE: Iteration 2
smoothSolver:  Solving for hUx, Initial residual = 0.019886, Final residual = 0.00077334, No Iterations 1
smoothSolver:  Solving for hUy, Initial residual = 0.00317321, Final residual = 0.000124906, No Iterations 1
DICPCG:  Solving for h, Initial residual = 0.00205916, Final residual = 6.34501e-12, No Iterations 4
PIMPLE: Iteration 3
smoothSolver:  Solving for hUx, Initial residual = 0.00158338, Final residual = 4.74567e-12, No Iterations 6
smoothSolver:  Solving for hUy, Initial residual = 0.000148616, Final residual = 1.27894e-11, No Iterations 5
DICPCG:  Solving for h, Initial residual = 0.000155692, Final residual = 6.45794e-11, No Iterations 3
ExecutionTime = 0.08 s  ClockTime = 0 s


 Time = 1

Courant number mean: 0.200387 max: 0.216088
Gravity wave Courant number max: 0.627897
PIMPLE: Iteration 1
smoothSolver:  Solving for hUx, Initial residual = 0.120548, Final residual = 0.00477913, No Iterations 1
smoothSolver:  Solving for hUy, Initial residual = 0.113166, Final residual = 0.00452777, No Iterations 1
DICPCG:  Solving for h, Initial residual = 0.0626418, Final residual = 1.25771e-12, No Iterations 5
PIMPLE: Iteration 2
smoothSolver:  Solving for hUx, Initial residual = 0.019476, Final residual = 0.000763056, No Iterations 1
smoothSolver:  Solving for hUy, Initial residual = 0.00323877, Final residual = 0.000126566, No Iterations 1
DICPCG:  Solving for h, Initial residual = 0.00209236, Final residual = 6.39687e-12, No Iterations 4
PIMPLE: Iteration 3
smoothSolver:  Solving for hUx, Initial residual = 0.00154775, Final residual = 4.70565e-12, No Iterations 6
smoothSolver:  Solving for hUy, Initial residual = 0.00013927, Final residual = 1.17474e-11, No Iterations 5
DICPCG:  Solving for h, Initial residual = 0.000159921, Final residual = 6.63644e-11, No Iterations 3
ExecutionTime = 0.1 s  ClockTime = 0 s


 Time = 1.1

Courant number mean: 0.200402 max: 0.215804
Gravity wave Courant number max: 0.627772
PIMPLE: Iteration 1
smoothSolver:  Solving for hUx, Initial residual = 0.123081, Final residual = 0.00484976, No Iterations 1
smoothSolver:  Solving for hUy, Initial residual = 0.112336, Final residual = 0.0045118, No Iterations 1
DICPCG:  Solving for h, Initial residual = 0.0640998, Final residual = 1.2307e-12, No Iterations 5
PIMPLE: Iteration 2
smoothSolver:  Solving for hUx, Initial residual = 0.0189808, Final residual = 0.000741648, No Iterations 1
smoothSolver:  Solving for hUy, Initial residual = 0.00316603, Final residual = 0.000123646, No Iterations 1
DICPCG:  Solving for h, Initial residual = 0.00209863, Final residual = 5.56938e-12, No Iterations 4
PIMPLE: Iteration 3
smoothSolver:  Solving for hUx, Initial residual = 0.00145906, Final residual = 4.26777e-12, No Iterations 6
smoothSolver:  Solving for hUy, Initial residual = 0.000136381, Final residual = 1.08462e-11, No Iterations 5
DICPCG:  Solving for h, Initial residual = 0.000158345, Final residual = 6.5031e-11, No Iterations 3
ExecutionTime = 0.1 s  ClockTime = 0 s


 Time = 1.2

Courant number mean: 0.200412 max: 0.215617
Gravity wave Courant number max: 0.627654
PIMPLE: Iteration 1
smoothSolver:  Solving for hUx, Initial residual = 0.116743, Final residual = 0.00462573, No Iterations 1
smoothSolver:  Solving for hUy, Initial residual = 0.112621, Final residual = 0.0045002, No Iterations 1
DICPCG:  Solving for h, Initial residual = 0.0652657, Final residual = 1.27768e-12, No Iterations 5
PIMPLE: Iteration 2
smoothSolver:  Solving for hUx, Initial residual = 0.0195723, Final residual = 0.000764566, No Iterations 1
smoothSolver:  Solving for hUy, Initial residual = 0.00315027, Final residual = 0.000123823, No Iterations 1
DICPCG:  Solving for h, Initial residual = 0.00216888, Final residual = 5.62019e-12, No Iterations 4
PIMPLE: Iteration 3
smoothSolver:  Solving for hUx, Initial residual = 0.00150003, Final residual = 3.89481e-12, No Iterations 6
smoothSolver:  Solving for hUy, Initial residual = 0.000134066, Final residual = 1.04593e-11, No Iterations 5
DICPCG:  Solving for h, Initial residual = 0.000164494, Final residual = 5.87803e-11, No Iterations 3
ExecutionTime = 0.11 s  ClockTime = 0 s


 Time = 1.3

Courant number mean: 0.200417 max: 0.215537
Gravity wave Courant number max: 0.62759
PIMPLE: Iteration 1
smoothSolver:  Solving for hUx, Initial residual = 0.115809, Final residual = 0.00456831, No Iterations 1
smoothSolver:  Solving for hUy, Initial residual = 0.110841, Final residual = 0.00443505, No Iterations 1
DICPCG:  Solving for h, Initial residual = 0.068496, Final residual = 1.16227e-12, No Iterations 5
PIMPLE: Iteration 2
smoothSolver:  Solving for hUx, Initial residual = 0.0187428, Final residual = 0.00072874, No Iterations 1
smoothSolver:  Solving for hUy, Initial residual = 0.00323414, Final residual = 0.00012626, No Iterations 1
DICPCG:  Solving for h, Initial residual = 0.00218596, Final residual = 6.02913e-12, No Iterations 4
PIMPLE: Iteration 3
smoothSolver:  Solving for hUx, Initial residual = 0.00146765, Final residual = 3.66197e-12, No Iterations 6
smoothSolver:  Solving for hUy, Initial residual = 0.000131313, Final residual = 9.94006e-12, No Iterations 5
DICPCG:  Solving for h, Initial residual = 0.000169056, Final residual = 6.4001e-11, No Iterations 3
ExecutionTime = 0.11 s  ClockTime = 0 s


 Time = 1.4

Courant number mean: 0.200419 max: 0.21548
Gravity wave Courant number max: 0.627477
PIMPLE: Iteration 1
smoothSolver:  Solving for hUx, Initial residual = 0.112879, Final residual = 0.0044641, No Iterations 1
smoothSolver:  Solving for hUy, Initial residual = 0.107898, Final residual = 0.00431995, No Iterations 1
DICPCG:  Solving for h, Initial residual = 0.0699349, Final residual = 1.1472e-12, No Iterations 5
PIMPLE: Iteration 2
smoothSolver:  Solving for hUx, Initial residual = 0.0184755, Final residual = 0.000714101, No Iterations 1
smoothSolver:  Solving for hUy, Initial residual = 0.0032376, Final residual = 0.000126209, No Iterations 1
DICPCG:  Solving for h, Initial residual = 0.00215707, Final residual = 5.64132e-12, No Iterations 4
PIMPLE: Iteration 3
smoothSolver:  Solving for hUx, Initial residual = 0.00142957, Final residual = 3.47334e-12, No Iterations 6
smoothSolver:  Solving for hUy, Initial residual = 0.000133797, Final residual = 9.76477e-12, No Iterations 5
DICPCG:  Solving for h, Initial residual = 0.000162321, Final residual = 6.60906e-11, No Iterations 3
ExecutionTime = 0.12 s  ClockTime = 0 s


 Time = 1.5

Courant number mean: 0.200419 max: 0.215406
Gravity wave Courant number max: 0.627458
PIMPLE: Iteration 1
smoothSolver:  Solving for hUx, Initial residual = 0.1133, Final residual = 0.00443491, No Iterations 1
smoothSolver:  Solving for hUy, Initial residual = 0.10757, Final residual = 0.0043039, No Iterations 1
DICPCG:  Solving for h, Initial residual = 0.0698529, Final residual = 1.20175e-12, No Iterations 5
PIMPLE: Iteration 2
smoothSolver:  Solving for hUx, Initial residual = 0.0195851, Final residual = 0.000746641, No Iterations 1
smoothSolver:  Solving for hUy, Initial residual = 0.0032177, Final residual = 0.000125312, No Iterations 1
DICPCG:  Solving for h, Initial residual = 0.00216612, Final residual = 4.9262e-12, No Iterations 4
PIMPLE: Iteration 3
smoothSolver:  Solving for hUx, Initial residual = 0.00149338, Final residual = 9.29323e-11, No Iterations 5
smoothSolver:  Solving for hUy, Initial residual = 0.000130147, Final residual = 9.1291e-12, No Iterations 5
DICPCG:  Solving for h, Initial residual = 0.000163872, Final residual = 5.96009e-11, No Iterations 3
ExecutionTime = 0.12 s  ClockTime = 0 s


 Time = 1.6

Courant number mean: 0.200416 max: 0.215372
Gravity wave Courant number max: 0.627349
PIMPLE: Iteration 1
smoothSolver:  Solving for hUx, Initial residual = 0.118155, Final residual = 0.00460835, No Iterations 1
smoothSolver:  Solving for hUy, Initial residual = 0.108202, Final residual = 0.00430979, No Iterations 1
DICPCG:  Solving for h, Initial residual = 0.0675756, Final residual = 1.0679e-12, No Iterations 5
PIMPLE: Iteration 2
smoothSolver:  Solving for hUx, Initial residual = 0.0202362, Final residual = 0.000770918, No Iterations 1
smoothSolver:  Solving for hUy, Initial residual = 0.00329193, Final residual = 0.00012746, No Iterations 1
DICPCG:  Solving for h, Initial residual = 0.00215561, Final residual = 5.27064e-12, No Iterations 4
PIMPLE: Iteration 3
smoothSolver:  Solving for hUx, Initial residual = 0.0014932, Final residual = 9.45333e-11, No Iterations 5
smoothSolver:  Solving for hUy, Initial residual = 0.000128925, Final residual = 8.52829e-12, No Iterations 5
DICPCG:  Solving for h, Initial residual = 0.000161516, Final residual = 5.60365e-11, No Iterations 3
ExecutionTime = 0.13 s  ClockTime = 0 s


 Time = 1.7

Courant number mean: 0.200412 max: 0.215404
Gravity wave Courant number max: 0.627346
PIMPLE: Iteration 1
smoothSolver:  Solving for hUx, Initial residual = 0.115565, Final residual = 0.00448589, No Iterations 1
smoothSolver:  Solving for hUy, Initial residual = 0.110056, Final residual = 0.00436207, No Iterations 1
DICPCG:  Solving for h, Initial residual = 0.0644503, Final residual = 9.31982e-13, No Iterations 5
PIMPLE: Iteration 2
smoothSolver:  Solving for hUx, Initial residual = 0.0201327, Final residual = 0.000758193, No Iterations 1
smoothSolver:  Solving for hUy, Initial residual = 0.00326437, Final residual = 0.000125818, No Iterations 1
DICPCG:  Solving for h, Initial residual = 0.00212934, Final residual = 5.36254e-12, No Iterations 4
PIMPLE: Iteration 3
smoothSolver:  Solving for hUx, Initial residual = 0.0014836, Final residual = 8.99758e-11, No Iterations 5
smoothSolver:  Solving for hUy, Initial residual = 0.000128523, Final residual = 8.19713e-12, No Iterations 5
DICPCG:  Solving for h, Initial residual = 0.000160781, Final residual = 5.64692e-11, No Iterations 3
ExecutionTime = 0.13 s  ClockTime = 0 s


 Time = 1.8

Courant number mean: 0.200405 max: 0.215443
Gravity wave Courant number max: 0.627273
PIMPLE: Iteration 1
smoothSolver:  Solving for hUx, Initial residual = 0.108472, Final residual = 0.0042072, No Iterations 1
smoothSolver:  Solving for hUy, Initial residual = 0.112554, Final residual = 0.00441602, No Iterations 1
DICPCG:  Solving for h, Initial residual = 0.0643463, Final residual = 1.0622e-12, No Iterations 5
PIMPLE: Iteration 2
smoothSolver:  Solving for hUx, Initial residual = 0.0191994, Final residual = 0.000729859, No Iterations 1
smoothSolver:  Solving for hUy, Initial residual = 0.00321214, Final residual = 0.000123498, No Iterations 1
DICPCG:  Solving for h, Initial residual = 0.00204931, Final residual = 4.94639e-12, No Iterations 4
PIMPLE: Iteration 3
smoothSolver:  Solving for hUx, Initial residual = 0.0014119, Final residual = 7.99498e-11, No Iterations 5
smoothSolver:  Solving for hUy, Initial residual = 0.000121065, Final residual = 7.37114e-12, No Iterations 5
DICPCG:  Solving for h, Initial residual = 0.000155625, Final residual = 5.41529e-11, No Iterations 3
ExecutionTime = 0.14 s  ClockTime = 0 s


 Time = 1.9

Courant number mean: 0.200405 max: 0.215428
Gravity wave Courant number max: 0.627295
PIMPLE: Iteration 1
smoothSolver:  Solving for hUx, Initial residual = 0.0998102, Final residual = 0.00382471, No Iterations 1
smoothSolver:  Solving for hUy, Initial residual = 0.109596, Final residual = 0.00423789, No Iterations 1
DICPCG:  Solving for h, Initial residual = 0.066696, Final residual = 1.09712e-12, No Iterations 5
PIMPLE: Iteration 2
smoothSolver:  Solving for hUx, Initial residual = 0.0171952, Final residual = 0.000642289, No Iterations 1
smoothSolver:  Solving for hUy, Initial residual = 0.00307931, Final residual = 0.000118298, No Iterations 1
DICPCG:  Solving for h, Initial residual = 0.00182681, Final residual = 4.46209e-12, No Iterations 4
PIMPLE: Iteration 3
smoothSolver:  Solving for hUx, Initial residual = 0.00129163, Final residual = 6.5406e-11, No Iterations 5
smoothSolver:  Solving for hUy, Initial residual = 0.000115343, Final residual = 6.592e-12, No Iterations 5
DICPCG:  Solving for h, Initial residual = 0.000138457, Final residual = 4.98374e-11, No Iterations 3
ExecutionTime = 0.14 s  ClockTime = 0 s


 Time = 2

Courant number mean: 0.20042 max: 0.215374
Gravity wave Courant number max: 0.627369
PIMPLE: Iteration 1
smoothSolver:  Solving for hUx, Initial residual = 0.0958096, Final residual = 0.00363179, No Iterations 1
smoothSolver:  Solving for hUy, Initial residual = 0.101676, Final residual = 0.00388394, No Iterations 1
DICPCG:  Solving for h, Initial residual = 0.0641725, Final residual = 9.76548e-13, No Iterations 5
PIMPLE: Iteration 2
smoothSolver:  Solving for hUx, Initial residual = 0.0180864, Final residual = 0.000656853, No Iterations 1
smoothSolver:  Solving for hUy, Initial residual = 0.00282451, Final residual = 0.000107807, No Iterations 1
DICPCG:  Solving for h, Initial residual = 0.00185597, Final residual = 4.51862e-12, No Iterations 4
PIMPLE: Iteration 3
smoothSolver:  Solving for hUx, Initial residual = 0.00133358, Final residual = 6.44062e-11, No Iterations 5
smoothSolver:  Solving for hUy, Initial residual = 0.000107664, Final residual = 6.04267e-12, No Iterations 5
DICPCG:  Solving for h, Initial residual = 0.000135859, Final residual = 4.90953e-11, No Iterations 3
ExecutionTime = 0.17 s  ClockTime = 0 s


 Time = 2.1

Courant number mean: 0.200447 max: 0.215334
Gravity wave Courant number max: 0.62753
PIMPLE: Iteration 1
smoothSolver:  Solving for hUx, Initial residual = 0.101221, Final residual = 0.00376612, No Iterations 1
smoothSolver:  Solving for hUy, Initial residual = 0.0895371, Final residual = 0.00336585, No Iterations 1
DICPCG:  Solving for h, Initial residual = 0.056637, Final residual = 8.98555e-13, No Iterations 5
PIMPLE: Iteration 2
smoothSolver:  Solving for hUx, Initial residual = 0.0183521, Final residual = 0.000645457, No Iterations 1
smoothSolver:  Solving for hUy, Initial residual = 0.00268991, Final residual = 0.000102968, No Iterations 1
DICPCG:  Solving for h, Initial residual = 0.00183156, Final residual = 4.65966e-12, No Iterations 4
PIMPLE: Iteration 3
smoothSolver:  Solving for hUx, Initial residual = 0.00136295, Final residual = 6.5684e-11, No Iterations 5
smoothSolver:  Solving for hUy, Initial residual = 9.92016e-05, Final residual = 5.20572e-12, No Iterations 5
DICPCG:  Solving for h, Initial residual = 0.000131878, Final residual = 4.69618e-11, No Iterations 3
ExecutionTime = 0.18 s  ClockTime = 0 s


 Time = 2.2

Courant number mean: 0.200478 max: 0.21533
Gravity wave Courant number max: 0.62754
PIMPLE: Iteration 1
smoothSolver:  Solving for hUx, Initial residual = 0.100234, Final residual = 0.00370661, No Iterations 1
smoothSolver:  Solving for hUy, Initial residual = 0.078497, Final residual = 0.00293046, No Iterations 1
DICPCG:  Solving for h, Initial residual = 0.0538005, Final residual = 8.65008e-13, No Iterations 5
PIMPLE: Iteration 2
smoothSolver:  Solving for hUx, Initial residual = 0.0174814, Final residual = 0.000601892, No Iterations 1
smoothSolver:  Solving for hUy, Initial residual = 0.00259662, Final residual = 9.94034e-05, No Iterations 1
DICPCG:  Solving for h, Initial residual = 0.00171356, Final residual = 4.40264e-12, No Iterations 4
PIMPLE: Iteration 3
smoothSolver:  Solving for hUx, Initial residual = 0.00126967, Final residual = 6.10797e-11, No Iterations 5
smoothSolver:  Solving for hUy, Initial residual = 8.89707e-05, Final residual = 4.52157e-12, No Iterations 5
DICPCG:  Solving for h, Initial residual = 0.000124114, Final residual = 4.27514e-11, No Iterations 3
ExecutionTime = 0.18 s  ClockTime = 0 s


 Time = 2.3

Courant number mean: 0.200512 max: 0.215343
Gravity wave Courant number max: 0.62747
PIMPLE: Iteration 1
smoothSolver:  Solving for hUx, Initial residual = 0.092808, Final residual = 0.00347713, No Iterations 1
smoothSolver:  Solving for hUy, Initial residual = 0.0789199, Final residual = 0.00290966, No Iterations 1
DICPCG:  Solving for h, Initial residual = 0.0548554, Final residual = 8.78159e-13, No Iterations 5
PIMPLE: Iteration 2
smoothSolver:  Solving for hUx, Initial residual = 0.0149933, Final residual = 0.000510299, No Iterations 1
smoothSolver:  Solving for hUy, Initial residual = 0.0024234, Final residual = 9.20836e-05, No Iterations 1
DICPCG:  Solving for h, Initial residual = 0.00142973, Final residual = 3.75355e-12, No Iterations 4
PIMPLE: Iteration 3
smoothSolver:  Solving for hUx, Initial residual = 0.00104218, Final residual = 4.78831e-11, No Iterations 5
smoothSolver:  Solving for hUy, Initial residual = 8.73572e-05, Final residual = 4.57959e-12, No Iterations 5
DICPCG:  Solving for h, Initial residual = 0.000102181, Final residual = 3.67628e-11, No Iterations 3
ExecutionTime = 0.19 s  ClockTime = 0 s


 Time = 2.4

Courant number mean: 0.200545 max: 0.215347
Gravity wave Courant number max: 0.627399
PIMPLE: Iteration 1
smoothSolver:  Solving for hUx, Initial residual = 0.0830239, Final residual = 0.00311543, No Iterations 1
smoothSolver:  Solving for hUy, Initial residual = 0.0844997, Final residual = 0.00306851, No Iterations 1
DICPCG:  Solving for h, Initial residual = 0.0545309, Final residual = 9.48049e-13, No Iterations 5
PIMPLE: Iteration 2
smoothSolver:  Solving for hUx, Initial residual = 0.0143072, Final residual = 0.000501132, No Iterations 1
smoothSolver:  Solving for hUy, Initial residual = 0.00220739, Final residual = 8.32483e-05, No Iterations 1
DICPCG:  Solving for h, Initial residual = 0.00139603, Final residual = 3.30005e-12, No Iterations 4
PIMPLE: Iteration 3
smoothSolver:  Solving for hUx, Initial residual = 0.00100016, Final residual = 5.22309e-11, No Iterations 5
smoothSolver:  Solving for hUy, Initial residual = 8.55896e-05, Final residual = 4.47881e-12, No Iterations 5
DICPCG:  Solving for h, Initial residual = 9.83347e-05, Final residual = 3.45432e-11, No Iterations 3
ExecutionTime = 0.19 s  ClockTime = 0 s


 Time = 2.5

Courant number mean: 0.200576 max: 0.215341
Gravity wave Courant number max: 0.627324
PIMPLE: Iteration 1
smoothSolver:  Solving for hUx, Initial residual = 0.0806424, Final residual = 0.00295054, No Iterations 1
smoothSolver:  Solving for hUy, Initial residual = 0.0848223, Final residual = 0.00302851, No Iterations 1
DICPCG:  Solving for h, Initial residual = 0.0502915, Final residual = 9.13076e-13, No Iterations 5
PIMPLE: Iteration 2
smoothSolver:  Solving for hUx, Initial residual = 0.0145699, Final residual = 0.000504961, No Iterations 1
smoothSolver:  Solving for hUy, Initial residual = 0.00220353, Final residual = 8.14712e-05, No Iterations 1
DICPCG:  Solving for h, Initial residual = 0.00140046, Final residual = 3.24474e-12, No Iterations 4
PIMPLE: Iteration 3
smoothSolver:  Solving for hUx, Initial residual = 0.00102853, Final residual = 5.82456e-11, No Iterations 5
smoothSolver:  Solving for hUy, Initial residual = 7.60907e-05, Final residual = 3.86602e-12, No Iterations 5
DICPCG:  Solving for h, Initial residual = 0.000101757, Final residual = 3.34041e-11, No Iterations 3
ExecutionTime = 0.2 s  ClockTime = 0 s


 Time = 2.6

Courant number mean: 0.200605 max: 0.215342
Gravity wave Courant number max: 0.627265
PIMPLE: Iteration 1
smoothSolver:  Solving for hUx, Initial residual = 0.085998, Final residual = 0.00308252, No Iterations 1
smoothSolver:  Solving for hUy, Initial residual = 0.0795279, Final residual = 0.00278159, No Iterations 1
DICPCG:  Solving for h, Initial residual = 0.0477817, Final residual = 8.53369e-13, No Iterations 5
PIMPLE: Iteration 2
smoothSolver:  Solving for hUx, Initial residual = 0.0139075, Final residual = 0.00046682, No Iterations 1
smoothSolver:  Solving for hUy, Initial residual = 0.00223237, Final residual = 8.14445e-05, No Iterations 1
DICPCG:  Solving for h, Initial residual = 0.00128757, Final residual = 3.05129e-12, No Iterations 4
PIMPLE: Iteration 3
smoothSolver:  Solving for hUx, Initial residual = 0.000978635, Final residual = 5.53769e-11, No Iterations 5
smoothSolver:  Solving for hUy, Initial residual = 6.68516e-05, Final residual = 3.65987e-12, No Iterations 5
DICPCG:  Solving for h, Initial residual = 9.2615e-05, Final residual = 3.18012e-11, No Iterations 3
ExecutionTime = 0.2 s  ClockTime = 0 s


 Time = 2.7

Courant number mean: 0.200619 max: 0.215364
Gravity wave Courant number max: 0.62736
PIMPLE: Iteration 1
smoothSolver:  Solving for hUx, Initial residual = 0.0892976, Final residual = 0.00319982, No Iterations 1
smoothSolver:  Solving for hUy, Initial residual = 0.0770131, Final residual = 0.00264985, No Iterations 1
DICPCG:  Solving for h, Initial residual = 0.0472671, Final residual = 7.94455e-13, No Iterations 5
PIMPLE: Iteration 2
smoothSolver:  Solving for hUx, Initial residual = 0.0122945, Final residual = 0.000395904, No Iterations 1
smoothSolver:  Solving for hUy, Initial residual = 0.0021257, Final residual = 7.65934e-05, No Iterations 1
DICPCG:  Solving for h, Initial residual = 0.00110836, Final residual = 2.62749e-12, No Iterations 4
PIMPLE: Iteration 3
smoothSolver:  Solving for hUx, Initial residual = 0.000845929, Final residual = 4.74086e-11, No Iterations 5
smoothSolver:  Solving for hUy, Initial residual = 6.73389e-05, Final residual = 3.99663e-12, No Iterations 5
DICPCG:  Solving for h, Initial residual = 7.57156e-05, Final residual = 2.70226e-11, No Iterations 3
ExecutionTime = 0.21 s  ClockTime = 0 s


 Time = 2.8

Courant number mean: 0.200624 max: 0.21541
Gravity wave Courant number max: 0.62749
PIMPLE: Iteration 1
smoothSolver:  Solving for hUx, Initial residual = 0.0920064, Final residual = 0.00337612, No Iterations 1
smoothSolver:  Solving for hUy, Initial residual = 0.0852201, Final residual = 0.00294857, No Iterations 1
DICPCG:  Solving for h, Initial residual = 0.042455, Final residual = 6.8088e-13, No Iterations 5
PIMPLE: Iteration 2
smoothSolver:  Solving for hUx, Initial residual = 0.0126174, Final residual = 0.000411754, No Iterations 1
smoothSolver:  Solving for hUy, Initial residual = 0.00194203, Final residual = 7.04111e-05, No Iterations 1
DICPCG:  Solving for h, Initial residual = 0.00114876, Final residual = 2.58886e-12, No Iterations 4
PIMPLE: Iteration 3
smoothSolver:  Solving for hUx, Initial residual = 0.000868094, Final residual = 5.26603e-11, No Iterations 5
smoothSolver:  Solving for hUy, Initial residual = 6.02319e-05, Final residual = 3.61685e-12, No Iterations 5
DICPCG:  Solving for h, Initial residual = 7.78687e-05, Final residual = 2.57293e-11, No Iterations 3
ExecutionTime = 0.21 s  ClockTime = 0 s


 Time = 2.9

Courant number mean: 0.200633 max: 0.215473
Gravity wave Courant number max: 0.627598
PIMPLE: Iteration 1
smoothSolver:  Solving for hUx, Initial residual = 0.094512, Final residual = 0.00356409, No Iterations 1
smoothSolver:  Solving for hUy, Initial residual = 0.0894208, Final residual = 0.00311685, No Iterations 1
DICPCG:  Solving for h, Initial residual = 0.0381192, Final residual = 8.25235e-11, No Iterations 4
PIMPLE: Iteration 2
smoothSolver:  Solving for hUx, Initial residual = 0.0125177, Final residual = 0.000425638, No Iterations 1
smoothSolver:  Solving for hUy, Initial residual = 0.00175244, Final residual = 6.34181e-05, No Iterations 1
DICPCG:  Solving for h, Initial residual = 0.00121025, Final residual = 2.62285e-12, No Iterations 4
PIMPLE: Iteration 3
smoothSolver:  Solving for hUx, Initial residual = 0.000904254, Final residual = 5.67039e-11, No Iterations 5
smoothSolver:  Solving for hUy, Initial residual = 5.3647e-05, Final residual = 8.06548e-11, No Iterations 4
DICPCG:  Solving for h, Initial residual = 8.55441e-05, Final residual = 2.56977e-11, No Iterations 3
ExecutionTime = 0.22 s  ClockTime = 0 s


 Time = 3

Courant number mean: 0.200658 max: 0.215551
Gravity wave Courant number max: 0.627546
PIMPLE: Iteration 1
smoothSolver:  Solving for hUx, Initial residual = 0.0917311, Final residual = 0.00348299, No Iterations 1
smoothSolver:  Solving for hUy, Initial residual = 0.0861286, Final residual = 0.00302915, No Iterations 1
DICPCG:  Solving for h, Initial residual = 0.0388855, Final residual = 8.07597e-11, No Iterations 4
PIMPLE: Iteration 2
smoothSolver:  Solving for hUx, Initial residual = 0.0116202, Final residual = 0.000402957, No Iterations 1
smoothSolver:  Solving for hUy, Initial residual = 0.00142153, Final residual = 5.27642e-05, No Iterations 1
DICPCG:  Solving for h, Initial residual = 0.00113353, Final residual = 2.4639e-12, No Iterations 4
PIMPLE: Iteration 3
smoothSolver:  Solving for hUx, Initial residual = 0.00083327, Final residual = 5.41889e-11, No Iterations 5
smoothSolver:  Solving for hUy, Initial residual = 5.01526e-05, Final residual = 8.0949e-11, No Iterations 4
DICPCG:  Solving for h, Initial residual = 8.14392e-05, Final residual = 2.36404e-11, No Iterations 3
ExecutionTime = 0.24 s  ClockTime = 1 s


 Time = 3.1

Courant number mean: 0.200686 max: 0.215637
Gravity wave Courant number max: 0.627327
PIMPLE: Iteration 1
smoothSolver:  Solving for hUx, Initial residual = 0.0856873, Final residual = 0.00325517, No Iterations 1
smoothSolver:  Solving for hUy, Initial residual = 0.0777113, Final residual = 0.00282889, No Iterations 1
DICPCG:  Solving for h, Initial residual = 0.0437804, Final residual = 8.65231e-11, No Iterations 4
PIMPLE: Iteration 2
smoothSolver:  Solving for hUx, Initial residual = 0.010356, Final residual = 0.000372637, No Iterations 1
smoothSolver:  Solving for hUy, Initial residual = 0.00111573, Final residual = 4.29391e-05, No Iterations 1
DICPCG:  Solving for h, Initial residual = 0.000973238, Final residual = 2.27845e-12, No Iterations 4
PIMPLE: Iteration 3
smoothSolver:  Solving for hUx, Initial residual = 0.000688567, Final residual = 5.0936e-11, No Iterations 5
smoothSolver:  Solving for hUy, Initial residual = 4.49613e-05, Final residual = 8.29844e-11, No Iterations 4
DICPCG:  Solving for h, Initial residual = 7.25522e-05, Final residual = 2.30611e-11, No Iterations 3
ExecutionTime = 0.24 s  ClockTime = 1 s


 Time = 3.2

Courant number mean: 0.200709 max: 0.215718
Gravity wave Courant number max: 0.626999
PIMPLE: Iteration 1
smoothSolver:  Solving for hUx, Initial residual = 0.0770595, Final residual = 0.00290397, No Iterations 1
smoothSolver:  Solving for hUy, Initial residual = 0.0639682, Final residual = 0.00243138, No Iterations 1
DICPCG:  Solving for h, Initial residual = 0.0448966, Final residual = 9.52223e-11, No Iterations 4
PIMPLE: Iteration 2
smoothSolver:  Solving for hUx, Initial residual = 0.0090215, Final residual = 0.000337103, No Iterations 1
smoothSolver:  Solving for hUy, Initial residual = 0.00126923, Final residual = 4.7795e-05, No Iterations 1
DICPCG:  Solving for h, Initial residual = 0.000909632, Final residual = 2.14193e-12, No Iterations 4
PIMPLE: Iteration 3
smoothSolver:  Solving for hUx, Initial residual = 0.000619562, Final residual = 4.93858e-11, No Iterations 5
smoothSolver:  Solving for hUy, Initial residual = 3.16769e-05, Final residual = 6.31294e-11, No Iterations 4
DICPCG:  Solving for h, Initial residual = 6.90977e-05, Final residual = 2.13249e-11, No Iterations 3
ExecutionTime = 0.25 s  ClockTime = 1 s


 Time = 3.3

Courant number mean: 0.200725 max: 0.215775
Gravity wave Courant number max: 0.626996
PIMPLE: Iteration 1
smoothSolver:  Solving for hUx, Initial residual = 0.0724929, Final residual = 0.00276068, No Iterations 1
smoothSolver:  Solving for hUy, Initial residual = 0.0479483, Final residual = 0.00174674, No Iterations 1
DICPCG:  Solving for h, Initial residual = 0.0454236, Final residual = 9.86608e-11, No Iterations 4
PIMPLE: Iteration 2
smoothSolver:  Solving for hUx, Initial residual = 0.0087658, Final residual = 0.000318875, No Iterations 1
smoothSolver:  Solving for hUy, Initial residual = 0.00151312, Final residual = 5.56428e-05, No Iterations 1
DICPCG:  Solving for h, Initial residual = 0.000988328, Final residual = 1.94779e-12, No Iterations 4
PIMPLE: Iteration 3
smoothSolver:  Solving for hUx, Initial residual = 0.000661805, Final residual = 4.88393e-11, No Iterations 5
smoothSolver:  Solving for hUy, Initial residual = 3.18005e-05, Final residual = 5.75915e-11, No Iterations 4
DICPCG:  Solving for h, Initial residual = 7.10653e-05, Final residual = 2.08864e-11, No Iterations 3
ExecutionTime = 0.25 s  ClockTime = 1 s


 Time = 3.4

Courant number mean: 0.200727 max: 0.215792
Gravity wave Courant number max: 0.626951
PIMPLE: Iteration 1
smoothSolver:  Solving for hUx, Initial residual = 0.074441, Final residual = 0.00288171, No Iterations 1
smoothSolver:  Solving for hUy, Initial residual = 0.0477673, Final residual = 0.00164705, No Iterations 1
DICPCG:  Solving for h, Initial residual = 0.0421316, Final residual = 8.60509e-11, No Iterations 4
PIMPLE: Iteration 2
smoothSolver:  Solving for hUx, Initial residual = 0.009156, Final residual = 0.000327471, No Iterations 1
smoothSolver:  Solving for hUy, Initial residual = 0.00143577, Final residual = 5.15806e-05, No Iterations 1
DICPCG:  Solving for h, Initial residual = 0.00101223, Final residual = 1.94759e-12, No Iterations 4
PIMPLE: Iteration 3
smoothSolver:  Solving for hUx, Initial residual = 0.000689842, Final residual = 4.75882e-11, No Iterations 5
smoothSolver:  Solving for hUy, Initial residual = 4.31137e-05, Final residual = 7.9428e-11, No Iterations 4
DICPCG:  Solving for h, Initial residual = 6.98679e-05, Final residual = 2.0353e-11, No Iterations 3
ExecutionTime = 0.26 s  ClockTime = 1 s


 Time = 3.5

Courant number mean: 0.200713 max: 0.215761
Gravity wave Courant number max: 0.626918
PIMPLE: Iteration 1
smoothSolver:  Solving for hUx, Initial residual = 0.0788179, Final residual = 0.00311993, No Iterations 1
smoothSolver:  Solving for hUy, Initial residual = 0.058319, Final residual = 0.00201298, No Iterations 1
DICPCG:  Solving for h, Initial residual = 0.0366195, Final residual = 7.27822e-11, No Iterations 4
PIMPLE: Iteration 2
smoothSolver:  Solving for hUx, Initial residual = 0.0100982, Final residual = 0.000370063, No Iterations 1
smoothSolver:  Solving for hUy, Initial residual = 0.00115877, Final residual = 4.07184e-05, No Iterations 1
DICPCG:  Solving for h, Initial residual = 0.00101906, Final residual = 2.12621e-12, No Iterations 4
PIMPLE: Iteration 3
smoothSolver:  Solving for hUx, Initial residual = 0.000720284, Final residual = 5.10622e-11, No Iterations 5
smoothSolver:  Solving for hUy, Initial residual = 4.72481e-05, Final residual = 8.49636e-11, No Iterations 4
DICPCG:  Solving for h, Initial residual = 7.24619e-05, Final residual = 2.11431e-11, No Iterations 3
ExecutionTime = 0.26 s  ClockTime = 1 s


 Time = 3.6

Courant number mean: 0.200692 max: 0.215692
Gravity wave Courant number max: 0.626989
PIMPLE: Iteration 1
smoothSolver:  Solving for hUx, Initial residual = 0.0819329, Final residual = 0.00327361, No Iterations 1
smoothSolver:  Solving for hUy, Initial residual = 0.0676145, Final residual = 0.00240897, No Iterations 1
DICPCG:  Solving for h, Initial residual = 0.0330498, Final residual = 7.30965e-11, No Iterations 4
PIMPLE: Iteration 2
smoothSolver:  Solving for hUx, Initial residual = 0.00993199, Final residual = 0.000369275, No Iterations 1
smoothSolver:  Solving for hUy, Initial residual = 0.00126104, Final residual = 4.54078e-05, No Iterations 1
DICPCG:  Solving for h, Initial residual = 0.000960954, Final residual = 2.02828e-12, No Iterations 4
PIMPLE: Iteration 3
smoothSolver:  Solving for hUx, Initial residual = 0.00070945, Final residual = 5.08654e-11, No Iterations 5
smoothSolver:  Solving for hUy, Initial residual = 4.01242e-05, Final residual = 7.26601e-11, No Iterations 4
DICPCG:  Solving for h, Initial residual = 7.25516e-05, Final residual = 2.00553e-11, No Iterations 3
ExecutionTime = 0.27 s  ClockTime = 1 s


 Time = 3.7

Courant number mean: 0.200674 max: 0.215611
Gravity wave Courant number max: 0.627058
PIMPLE: Iteration 1
smoothSolver:  Solving for hUx, Initial residual = 0.081088, Final residual = 0.0032146, No Iterations 1
smoothSolver:  Solving for hUy, Initial residual = 0.0726618, Final residual = 0.00267818, No Iterations 1
DICPCG:  Solving for h, Initial residual = 0.0328137, Final residual = 7.09663e-11, No Iterations 4
PIMPLE: Iteration 2
smoothSolver:  Solving for hUx, Initial residual = 0.00879702, Final residual = 0.000327223, No Iterations 1
smoothSolver:  Solving for hUy, Initial residual = 0.00144767, Final residual = 5.37892e-05, No Iterations 1
DICPCG:  Solving for h, Initial residual = 0.00081645, Final residual = 1.86357e-12, No Iterations 4
PIMPLE: Iteration 3
smoothSolver:  Solving for hUx, Initial residual = 0.000600472, Final residual = 4.80223e-11, No Iterations 5
smoothSolver:  Solving for hUy, Initial residual = 3.76008e-05, Final residual = 7.42805e-11, No Iterations 4
DICPCG:  Solving for h, Initial residual = 6.13884e-05, Final residual = 1.84748e-11, No Iterations 3
ExecutionTime = 0.27 s  ClockTime = 1 s


 Time = 3.8

Courant number mean: 0.20066 max: 0.215552
Gravity wave Courant number max: 0.627108
PIMPLE: Iteration 1
smoothSolver:  Solving for hUx, Initial residual = 0.0801244, Final residual = 0.00317758, No Iterations 1
smoothSolver:  Solving for hUy, Initial residual = 0.0745862, Final residual = 0.00279163, No Iterations 1
DICPCG:  Solving for h, Initial residual = 0.0335401, Final residual = 6.57637e-11, No Iterations 4
PIMPLE: Iteration 2
smoothSolver:  Solving for hUx, Initial residual = 0.00812451, Final residual = 0.00029898, No Iterations 1
smoothSolver:  Solving for hUy, Initial residual = 0.0014444, Final residual = 5.33782e-05, No Iterations 1
DICPCG:  Solving for h, Initial residual = 0.000790813, Final residual = 1.7317e-12, No Iterations 4
PIMPLE: Iteration 3
smoothSolver:  Solving for hUx, Initial residual = 0.000605176, Final residual = 4.7609e-11, No Iterations 5
smoothSolver:  Solving for hUy, Initial residual = 3.72553e-05, Final residual = 7.65036e-11, No Iterations 4
DICPCG:  Solving for h, Initial residual = 5.73898e-05, Final residual = 1.72505e-11, No Iterations 3
ExecutionTime = 0.28 s  ClockTime = 1 s


 Time = 3.9

Courant number mean: 0.200648 max: 0.215542
Gravity wave Courant number max: 0.627125
PIMPLE: Iteration 1
smoothSolver:  Solving for hUx, Initial residual = 0.0802052, Final residual = 0.00319811, No Iterations 1
smoothSolver:  Solving for hUy, Initial residual = 0.0733372, Final residual = 0.0027793, No Iterations 1
DICPCG:  Solving for h, Initial residual = 0.0317479, Final residual = 5.98689e-11, No Iterations 4
PIMPLE: Iteration 2
smoothSolver:  Solving for hUx, Initial residual = 0.00848761, Final residual = 0.00031863, No Iterations 1
smoothSolver:  Solving for hUy, Initial residual = 0.00144523, Final residual = 5.2524e-05, No Iterations 1
DICPCG:  Solving for h, Initial residual = 0.000804274, Final residual = 1.67245e-12, No Iterations 4
PIMPLE: Iteration 3
smoothSolver:  Solving for hUx, Initial residual = 0.000626571, Final residual = 4.91648e-11, No Iterations 5
smoothSolver:  Solving for hUy, Initial residual = 3.85063e-05, Final residual = 7.36535e-11, No Iterations 4
DICPCG:  Solving for h, Initial residual = 5.94304e-05, Final residual = 1.8167e-11, No Iterations 3
ExecutionTime = 0.28 s  ClockTime = 1 s


 Time = 4

Courant number mean: 0.20064 max: 0.215587
Gravity wave Courant number max: 0.627105
PIMPLE: Iteration 1
smoothSolver:  Solving for hUx, Initial residual = 0.0789943, Final residual = 0.0031716, No Iterations 1
smoothSolver:  Solving for hUy, Initial residual = 0.0710921, Final residual = 0.00267473, No Iterations 1
DICPCG:  Solving for h, Initial residual = 0.0309065, Final residual = 5.83844e-11, No Iterations 4
PIMPLE: Iteration 2
smoothSolver:  Solving for hUx, Initial residual = 0.00832262, Final residual = 0.000314464, No Iterations 1
smoothSolver:  Solving for hUy, Initial residual = 0.00132068, Final residual = 4.80399e-05, No Iterations 1
DICPCG:  Solving for h, Initial residual = 0.00081144, Final residual = 1.77789e-12, No Iterations 4
PIMPLE: Iteration 3
smoothSolver:  Solving for hUx, Initial residual = 0.000635611, Final residual = 4.97401e-11, No Iterations 5
smoothSolver:  Solving for hUy, Initial residual = 3.92484e-05, Final residual = 7.68666e-11, No Iterations 4
DICPCG:  Solving for h, Initial residual = 6.12522e-05, Final residual = 1.89015e-11, No Iterations 3
ExecutionTime = 0.3 s  ClockTime = 1 s


 Time = 4.1

Courant number mean: 0.200639 max: 0.215672
Gravity wave Courant number max: 0.627057
PIMPLE: Iteration 1
smoothSolver:  Solving for hUx, Initial residual = 0.0784074, Final residual = 0.00314003, No Iterations 1
smoothSolver:  Solving for hUy, Initial residual = 0.0698281, Final residual = 0.00259521, No Iterations 1
DICPCG:  Solving for h, Initial residual = 0.0288143, Final residual = 6.13666e-11, No Iterations 4
PIMPLE: Iteration 2
smoothSolver:  Solving for hUx, Initial residual = 0.00782932, Final residual = 0.000294249, No Iterations 1
smoothSolver:  Solving for hUy, Initial residual = 0.00111811, Final residual = 4.07139e-05, No Iterations 1
DICPCG:  Solving for h, Initial residual = 0.000754076, Final residual = 1.58283e-12, No Iterations 4
PIMPLE: Iteration 3
smoothSolver:  Solving for hUx, Initial residual = 0.000589786, Final residual = 4.58684e-11, No Iterations 5
smoothSolver:  Solving for hUy, Initial residual = 4.01318e-05, Final residual = 7.93065e-11, No Iterations 4
DICPCG:  Solving for h, Initial residual = 5.719e-05, Final residual = 1.69834e-11, No Iterations 3
ExecutionTime = 0.31 s  ClockTime = 1 s


 Time = 4.2

Courant number mean: 0.200647 max: 0.215759
Gravity wave Courant number max: 0.626998
PIMPLE: Iteration 1
smoothSolver:  Solving for hUx, Initial residual = 0.076079, Final residual = 0.00303338, No Iterations 1
smoothSolver:  Solving for hUy, Initial residual = 0.0668902, Final residual = 0.00247632, No Iterations 1
DICPCG:  Solving for h, Initial residual = 0.0291004, Final residual = 6.37833e-11, No Iterations 4
PIMPLE: Iteration 2
smoothSolver:  Solving for hUx, Initial residual = 0.00715669, Final residual = 0.000267815, No Iterations 1
smoothSolver:  Solving for hUy, Initial residual = 0.00114953, Final residual = 4.24069e-05, No Iterations 1
DICPCG:  Solving for h, Initial residual = 0.000704764, Final residual = 1.41469e-12, No Iterations 4
PIMPLE: Iteration 3
smoothSolver:  Solving for hUx, Initial residual = 0.000533258, Final residual = 4.16149e-11, No Iterations 5
smoothSolver:  Solving for hUy, Initial residual = 2.99948e-05, Final residual = 6.19763e-11, No Iterations 4
DICPCG:  Solving for h, Initial residual = 5.18512e-05, Final residual = 1.5419e-11, No Iterations 3
ExecutionTime = 0.31 s  ClockTime = 1 s


 Time = 4.3

Courant number mean: 0.200666 max: 0.215809
Gravity wave Courant number max: 0.626941
PIMPLE: Iteration 1
smoothSolver:  Solving for hUx, Initial residual = 0.0700263, Final residual = 0.00280444, No Iterations 1
smoothSolver:  Solving for hUy, Initial residual = 0.0622585, Final residual = 0.00230473, No Iterations 1
DICPCG:  Solving for h, Initial residual = 0.0302159, Final residual = 6.30489e-11, No Iterations 4
PIMPLE: Iteration 2
smoothSolver:  Solving for hUx, Initial residual = 0.00664171, Final residual = 0.00024717, No Iterations 1
smoothSolver:  Solving for hUy, Initial residual = 0.00107732, Final residual = 4.03057e-05, No Iterations 1
DICPCG:  Solving for h, Initial residual = 0.000666924, Final residual = 1.33664e-12, No Iterations 4
PIMPLE: Iteration 3
smoothSolver:  Solving for hUx, Initial residual = 0.000491449, Final residual = 3.75248e-11, No Iterations 5
smoothSolver:  Solving for hUy, Initial residual = 2.83493e-05, Final residual = 5.63454e-11, No Iterations 4
DICPCG:  Solving for h, Initial residual = 4.89161e-05, Final residual = 1.5007e-11, No Iterations 3
ExecutionTime = 0.32 s  ClockTime = 1 s


 Time = 4.4

Courant number mean: 0.20068 max: 0.215797
Gravity wave Courant number max: 0.626896
PIMPLE: Iteration 1
smoothSolver:  Solving for hUx, Initial residual = 0.0645416, Final residual = 0.00258552, No Iterations 1
smoothSolver:  Solving for hUy, Initial residual = 0.0620319, Final residual = 0.00232314, No Iterations 1
DICPCG:  Solving for h, Initial residual = 0.0306027, Final residual = 6.16769e-11, No Iterations 4
PIMPLE: Iteration 2
smoothSolver:  Solving for hUx, Initial residual = 0.00631904, Final residual = 0.000238592, No Iterations 1
smoothSolver:  Solving for hUy, Initial residual = 0.000911942, Final residual = 3.46421e-05, No Iterations 1
DICPCG:  Solving for h, Initial residual = 0.000624145, Final residual = 1.33587e-12, No Iterations 4
PIMPLE: Iteration 3
smoothSolver:  Solving for hUx, Initial residual = 0.00045439, Final residual = 3.60957e-11, No Iterations 5
smoothSolver:  Solving for hUy, Initial residual = 2.80272e-05, Final residual = 5.8286e-11, No Iterations 4
DICPCG:  Solving for h, Initial residual = 4.43493e-05, Final residual = 1.47874e-11, No Iterations 3
ExecutionTime = 0.32 s  ClockTime = 1 s


 Time = 4.5

Courant number mean: 0.200689 max: 0.215722
Gravity wave Courant number max: 0.626864
PIMPLE: Iteration 1
smoothSolver:  Solving for hUx, Initial residual = 0.0636426, Final residual = 0.00254161, No Iterations 1
smoothSolver:  Solving for hUy, Initial residual = 0.0561619, Final residual = 0.00212571, No Iterations 1
DICPCG:  Solving for h, Initial residual = 0.0288468, Final residual = 5.56533e-11, No Iterations 4
PIMPLE: Iteration 2
smoothSolver:  Solving for hUx, Initial residual = 0.00665048, Final residual = 0.000253287, No Iterations 1
smoothSolver:  Solving for hUy, Initial residual = 0.000812195, Final residual = 3.09054e-05, No Iterations 1
DICPCG:  Solving for h, Initial residual = 0.000646553, Final residual = 1.34218e-12, No Iterations 4
PIMPLE: Iteration 3
smoothSolver:  Solving for hUx, Initial residual = 0.000473639, Final residual = 3.85403e-11, No Iterations 5
smoothSolver:  Solving for hUy, Initial residual = 2.707e-05, Final residual = 5.39359e-11, No Iterations 4
DICPCG:  Solving for h, Initial residual = 4.8088e-05, Final residual = 1.46386e-11, No Iterations 3
ExecutionTime = 0.33 s  ClockTime = 1 s


 Time = 4.6

Courant number mean: 0.200697 max: 0.215609
Gravity wave Courant number max: 0.626847
PIMPLE: Iteration 1
smoothSolver:  Solving for hUx, Initial residual = 0.0649331, Final residual = 0.00257303, No Iterations 1
smoothSolver:  Solving for hUy, Initial residual = 0.0478014, Final residual = 0.00182953, No Iterations 1
DICPCG:  Solving for h, Initial residual = 0.02946, Final residual = 5.4258e-11, No Iterations 4
PIMPLE: Iteration 2
smoothSolver:  Solving for hUx, Initial residual = 0.00661787, Final residual = 0.000255815, No Iterations 1
smoothSolver:  Solving for hUy, Initial residual = 0.000817845, Final residual = 3.10625e-05, No Iterations 1
DICPCG:  Solving for h, Initial residual = 0.000626091, Final residual = 1.31639e-12, No Iterations 4
PIMPLE: Iteration 3
smoothSolver:  Solving for hUx, Initial residual = 0.000455206, Final residual = 3.7798e-11, No Iterations 5
smoothSolver:  Solving for hUy, Initial residual = 2.53343e-05, Final residual = 5.16394e-11, No Iterations 4
DICPCG:  Solving for h, Initial residual = 4.82549e-05, Final residual = 1.48455e-11, No Iterations 3
ExecutionTime = 0.33 s  ClockTime = 1 s


 Time = 4.7

Courant number mean: 0.200702 max: 0.215492
Gravity wave Courant number max: 0.62685
PIMPLE: Iteration 1
smoothSolver:  Solving for hUx, Initial residual = 0.0629127, Final residual = 0.00249409, No Iterations 1
smoothSolver:  Solving for hUy, Initial residual = 0.0443153, Final residual = 0.00169421, No Iterations 1
DICPCG:  Solving for h, Initial residual = 0.0309608, Final residual = 5.97048e-11, No Iterations 4
PIMPLE: Iteration 2
smoothSolver:  Solving for hUx, Initial residual = 0.00604122, Final residual = 0.000232696, No Iterations 1
smoothSolver:  Solving for hUy, Initial residual = 0.000853218, Final residual = 3.2041e-05, No Iterations 1
DICPCG:  Solving for h, Initial residual = 0.000535676, Final residual = 1.20808e-12, No Iterations 4
PIMPLE: Iteration 3
smoothSolver:  Solving for hUx, Initial residual = 0.00040195, Final residual = 3.27726e-11, No Iterations 5
smoothSolver:  Solving for hUy, Initial residual = 2.34219e-05, Final residual = 4.71049e-11, No Iterations 4
DICPCG:  Solving for h, Initial residual = 4.13258e-05, Final residual = 1.23184e-11, No Iterations 3
ExecutionTime = 0.35 s  ClockTime = 1 s


 Time = 4.8

Courant number mean: 0.2007 max: 0.215402
Gravity wave Courant number max: 0.626877
PIMPLE: Iteration 1
smoothSolver:  Solving for hUx, Initial residual = 0.0599459, Final residual = 0.00238761, No Iterations 1
smoothSolver:  Solving for hUy, Initial residual = 0.0460161, Final residual = 0.00174419, No Iterations 1
DICPCG:  Solving for h, Initial residual = 0.0310808, Final residual = 5.97984e-11, No Iterations 4
PIMPLE: Iteration 2
smoothSolver:  Solving for hUx, Initial residual = 0.00622901, Final residual = 0.000240616, No Iterations 1
smoothSolver:  Solving for hUy, Initial residual = 0.000916691, Final residual = 3.394e-05, No Iterations 1
DICPCG:  Solving for h, Initial residual = 0.000523591, Final residual = 1.18136e-12, No Iterations 4
PIMPLE: Iteration 3
smoothSolver:  Solving for hUx, Initial residual = 0.000410463, Final residual = 3.20379e-11, No Iterations 5
smoothSolver:  Solving for hUy, Initial residual = 1.92233e-05, Final residual = 4.00411e-11, No Iterations 4
DICPCG:  Solving for h, Initial residual = 4.00677e-05, Final residual = 1.24095e-11, No Iterations 3
ExecutionTime = 0.35 s  ClockTime = 1 s


 Time = 4.9

Courant number mean: 0.200687 max: 0.215357
Gravity wave Courant number max: 0.626926
PIMPLE: Iteration 1
smoothSolver:  Solving for hUx, Initial residual = 0.0593676, Final residual = 0.0023819, No Iterations 1
smoothSolver:  Solving for hUy, Initial residual = 0.0523551, Final residual = 0.00198054, No Iterations 1
DICPCG:  Solving for h, Initial residual = 0.0290566, Final residual = 5.28826e-11, No Iterations 4
PIMPLE: Iteration 2
smoothSolver:  Solving for hUx, Initial residual = 0.0070083, Final residual = 0.00026822, No Iterations 1
smoothSolver:  Solving for hUy, Initial residual = 0.000813742, Final residual = 2.97369e-05, No Iterations 1
DICPCG:  Solving for h, Initial residual = 0.000605787, Final residual = 1.36077e-12, No Iterations 4
PIMPLE: Iteration 3
smoothSolver:  Solving for hUx, Initial residual = 0.000484714, Final residual = 3.69375e-11, No Iterations 5
smoothSolver:  Solving for hUy, Initial residual = 2.42372e-05, Final residual = 4.77816e-11, No Iterations 4
DICPCG:  Solving for h, Initial residual = 4.59512e-05, Final residual = 1.40055e-11, No Iterations 3
ExecutionTime = 0.36 s  ClockTime = 1 s


 Time = 5

Courant number mean: 0.200668 max: 0.215353
Gravity wave Courant number max: 0.626981
PIMPLE: Iteration 1
smoothSolver:  Solving for hUx, Initial residual = 0.0615977, Final residual = 0.00247202, No Iterations 1
smoothSolver:  Solving for hUy, Initial residual = 0.0568583, Final residual = 0.00214344, No Iterations 1
DICPCG:  Solving for h, Initial residual = 0.0264187, Final residual = 4.95633e-11, No Iterations 4
PIMPLE: Iteration 2
smoothSolver:  Solving for hUx, Initial residual = 0.00694596, Final residual = 0.000264239, No Iterations 1
smoothSolver:  Solving for hUy, Initial residual = 0.000743816, Final residual = 2.70691e-05, No Iterations 1
DICPCG:  Solving for h, Initial residual = 0.000602689, Final residual = 1.30425e-12, No Iterations 4
PIMPLE: Iteration 3
smoothSolver:  Solving for hUx, Initial residual = 0.000487784, Final residual = 3.68057e-11, No Iterations 5
smoothSolver:  Solving for hUy, Initial residual = 2.63194e-05, Final residual = 5.31656e-11, No Iterations 4
DICPCG:  Solving for h, Initial residual = 4.44447e-05, Final residual = 1.3365e-11, No Iterations 3
ExecutionTime = 0.37 s  ClockTime = 1 s


 Time = 5.1

Courant number mean: 0.200642 max: 0.215375
Gravity wave Courant number max: 0.627023
PIMPLE: Iteration 1
smoothSolver:  Solving for hUx, Initial residual = 0.0627279, Final residual = 0.00251234, No Iterations 1
smoothSolver:  Solving for hUy, Initial residual = 0.056609, Final residual = 0.00214416, No Iterations 1
DICPCG:  Solving for h, Initial residual = 0.0257956, Final residual = 5.16474e-11, No Iterations 4
PIMPLE: Iteration 2
smoothSolver:  Solving for hUx, Initial residual = 0.00653902, Final residual = 0.000249756, No Iterations 1
smoothSolver:  Solving for hUy, Initial residual = 0.000855688, Final residual = 3.16744e-05, No Iterations 1
DICPCG:  Solving for h, Initial residual = 0.000548781, Final residual = 1.06016e-12, No Iterations 4
PIMPLE: Iteration 3
smoothSolver:  Solving for hUx, Initial residual = 0.000464483, Final residual = 3.22476e-11, No Iterations 5
smoothSolver:  Solving for hUy, Initial residual = 2.29911e-05, Final residual = 4.50749e-11, No Iterations 4
DICPCG:  Solving for h, Initial residual = 3.96129e-05, Final residual = 1.11321e-11, No Iterations 3
ExecutionTime = 0.38 s  ClockTime = 1 s


 Time = 5.2

Courant number mean: 0.200615 max: 0.215403
Gravity wave Courant number max: 0.627033
PIMPLE: Iteration 1
smoothSolver:  Solving for hUx, Initial residual = 0.0592359, Final residual = 0.0023601, No Iterations 1
smoothSolver:  Solving for hUy, Initial residual = 0.0545082, Final residual = 0.0020826, No Iterations 1
DICPCG:  Solving for h, Initial residual = 0.0264094, Final residual = 5.12287e-11, No Iterations 4
PIMPLE: Iteration 2
smoothSolver:  Solving for hUx, Initial residual = 0.00672165, Final residual = 0.000254033, No Iterations 1
smoothSolver:  Solving for hUy, Initial residual = 0.000971916, Final residual = 3.68121e-05, No Iterations 1
DICPCG:  Solving for h, Initial residual = 0.000530423, Final residual = 1.02607e-12, No Iterations 4
PIMPLE: Iteration 3
smoothSolver:  Solving for hUx, Initial residual = 0.000456118, Final residual = 3.08746e-11, No Iterations 5
smoothSolver:  Solving for hUy, Initial residual = 2.20689e-05, Final residual = 4.23928e-11, No Iterations 4
DICPCG:  Solving for h, Initial residual = 3.96596e-05, Final residual = 1.08645e-11, No Iterations 3
ExecutionTime = 0.38 s  ClockTime = 1 s


 Time = 5.3

Courant number mean: 0.200589 max: 0.215431
Gravity wave Courant number max: 0.627007
PIMPLE: Iteration 1
smoothSolver:  Solving for hUx, Initial residual = 0.055344, Final residual = 0.00220466, No Iterations 1
smoothSolver:  Solving for hUy, Initial residual = 0.0547748, Final residual = 0.00212729, No Iterations 1
DICPCG:  Solving for h, Initial residual = 0.024617, Final residual = 4.7504e-11, No Iterations 4
PIMPLE: Iteration 2
smoothSolver:  Solving for hUx, Initial residual = 0.00671796, Final residual = 0.000256763, No Iterations 1
smoothSolver:  Solving for hUy, Initial residual = 0.00100156, Final residual = 3.82933e-05, No Iterations 1
DICPCG:  Solving for h, Initial residual = 0.00054939, Final residual = 1.08786e-12, No Iterations 4
PIMPLE: Iteration 3
smoothSolver:  Solving for hUx, Initial residual = 0.00047736, Final residual = 3.37342e-11, No Iterations 5
smoothSolver:  Solving for hUy, Initial residual = 2.65072e-05, Final residual = 5.04988e-11, No Iterations 4
DICPCG:  Solving for h, Initial residual = 4.10074e-05, Final residual = 1.16426e-11, No Iterations 3
ExecutionTime = 0.39 s  ClockTime = 1 s


 Time = 5.4

Courant number mean: 0.200566 max: 0.215463
Gravity wave Courant number max: 0.626951
PIMPLE: Iteration 1
smoothSolver:  Solving for hUx, Initial residual = 0.0529111, Final residual = 0.00208735, No Iterations 1
smoothSolver:  Solving for hUy, Initial residual = 0.0552484, Final residual = 0.00218296, No Iterations 1
DICPCG:  Solving for h, Initial residual = 0.0218628, Final residual = 4.38532e-11, No Iterations 4
PIMPLE: Iteration 2
smoothSolver:  Solving for hUx, Initial residual = 0.00657242, Final residual = 0.000257038, No Iterations 1
smoothSolver:  Solving for hUy, Initial residual = 0.000944048, Final residual = 3.55823e-05, No Iterations 1
DICPCG:  Solving for h, Initial residual = 0.00052863, Final residual = 1.11886e-12, No Iterations 4
PIMPLE: Iteration 3
smoothSolver:  Solving for hUx, Initial residual = 0.000452015, Final residual = 3.2742e-11, No Iterations 5
smoothSolver:  Solving for hUy, Initial residual = 2.89224e-05, Final residual = 5.68035e-11, No Iterations 4
DICPCG:  Solving for h, Initial residual = 3.79674e-05, Final residual = 1.18132e-11, No Iterations 3
ExecutionTime = 0.39 s  ClockTime = 1 s


 Time = 5.5

Courant number mean: 0.200548 max: 0.215506
Gravity wave Courant number max: 0.626879
PIMPLE: Iteration 1
smoothSolver:  Solving for hUx, Initial residual = 0.051213, Final residual = 0.00201335, No Iterations 1
smoothSolver:  Solving for hUy, Initial residual = 0.0592607, Final residual = 0.0023547, No Iterations 1
DICPCG:  Solving for h, Initial residual = 0.020829, Final residual = 4.03572e-11, No Iterations 4
PIMPLE: Iteration 2
smoothSolver:  Solving for hUx, Initial residual = 0.00630971, Final residual = 0.000247142, No Iterations 1
smoothSolver:  Solving for hUy, Initial residual = 0.000963617, Final residual = 3.54527e-05, No Iterations 1
DICPCG:  Solving for h, Initial residual = 0.000507945, Final residual = 1.07283e-12, No Iterations 4
PIMPLE: Iteration 3
smoothSolver:  Solving for hUx, Initial residual = 0.000433645, Final residual = 2.95301e-11, No Iterations 5
smoothSolver:  Solving for hUy, Initial residual = 2.93619e-05, Final residual = 5.62786e-11, No Iterations 4
DICPCG:  Solving for h, Initial residual = 3.63183e-05, Final residual = 1.13154e-11, No Iterations 3
ExecutionTime = 0.4 s  ClockTime = 1 s


 Time = 5.6

Courant number mean: 0.200541 max: 0.215558
Gravity wave Courant number max: 0.626806
PIMPLE: Iteration 1
smoothSolver:  Solving for hUx, Initial residual = 0.0475125, Final residual = 0.00185461, No Iterations 1
smoothSolver:  Solving for hUy, Initial residual = 0.065415, Final residual = 0.00254288, No Iterations 1
DICPCG:  Solving for h, Initial residual = 0.0207902, Final residual = 4.21431e-11, No Iterations 4
PIMPLE: Iteration 2
smoothSolver:  Solving for hUx, Initial residual = 0.0059471, Final residual = 0.000226966, No Iterations 1
smoothSolver:  Solving for hUy, Initial residual = 0.00098867, Final residual = 3.61165e-05, No Iterations 1
DICPCG:  Solving for h, Initial residual = 0.000485021, Final residual = 1.05214e-12, No Iterations 4
PIMPLE: Iteration 3
smoothSolver:  Solving for hUx, Initial residual = 0.000404492, Final residual = 2.73366e-11, No Iterations 5
smoothSolver:  Solving for hUy, Initial residual = 2.75936e-05, Final residual = 5.44524e-11, No Iterations 4
DICPCG:  Solving for h, Initial residual = 3.65569e-05, Final residual = 1.07683e-11, No Iterations 3
ExecutionTime = 0.4 s  ClockTime = 1 s


 Time = 5.7

Courant number mean: 0.200547 max: 0.215605
Gravity wave Courant number max: 0.626811
PIMPLE: Iteration 1
smoothSolver:  Solving for hUx, Initial residual = 0.0429575, Final residual = 0.00167366, No Iterations 1
smoothSolver:  Solving for hUy, Initial residual = 0.0627917, Final residual = 0.00239946, No Iterations 1
DICPCG:  Solving for h, Initial residual = 0.0204445, Final residual = 4.35722e-11, No Iterations 4
PIMPLE: Iteration 2
smoothSolver:  Solving for hUx, Initial residual = 0.00569252, Final residual = 0.000211018, No Iterations 1
smoothSolver:  Solving for hUy, Initial residual = 0.00102583, Final residual = 3.77749e-05, No Iterations 1
DICPCG:  Solving for h, Initial residual = 0.000483778, Final residual = 1.03738e-12, No Iterations 4
PIMPLE: Iteration 3
smoothSolver:  Solving for hUx, Initial residual = 0.000410517, Final residual = 2.63007e-11, No Iterations 5
smoothSolver:  Solving for hUy, Initial residual = 2.56777e-05, Final residual = 4.64055e-11, No Iterations 4
DICPCG:  Solving for h, Initial residual = 3.6141e-05, Final residual = 1.05381e-11, No Iterations 3
ExecutionTime = 0.41 s  ClockTime = 1 s


 Time = 5.8

Courant number mean: 0.200566 max: 0.215631
Gravity wave Courant number max: 0.626845
PIMPLE: Iteration 1
smoothSolver:  Solving for hUx, Initial residual = 0.038904, Final residual = 0.00152573, No Iterations 1
smoothSolver:  Solving for hUy, Initial residual = 0.0554499, Final residual = 0.00209182, No Iterations 1
DICPCG:  Solving for h, Initial residual = 0.0209214, Final residual = 4.24438e-11, No Iterations 4
PIMPLE: Iteration 2
smoothSolver:  Solving for hUx, Initial residual = 0.00583482, Final residual = 0.000214217, No Iterations 1
smoothSolver:  Solving for hUy, Initial residual = 0.000965532, Final residual = 3.60907e-05, No Iterations 1
DICPCG:  Solving for h, Initial residual = 0.000472593, Final residual = 9.9351e-13, No Iterations 4
PIMPLE: Iteration 3
smoothSolver:  Solving for hUx, Initial residual = 0.000403217, Final residual = 2.58748e-11, No Iterations 5
smoothSolver:  Solving for hUy, Initial residual = 2.44499e-05, Final residual = 4.58216e-11, No Iterations 4
DICPCG:  Solving for h, Initial residual = 3.53623e-05, Final residual = 1.05357e-11, No Iterations 3
ExecutionTime = 0.41 s  ClockTime = 1 s


 Time = 5.9

Courant number mean: 0.200586 max: 0.215633
Gravity wave Courant number max: 0.62688
PIMPLE: Iteration 1
smoothSolver:  Solving for hUx, Initial residual = 0.0396295, Final residual = 0.00156271, No Iterations 1
smoothSolver:  Solving for hUy, Initial residual = 0.0491429, Final residual = 0.00184732, No Iterations 1
DICPCG:  Solving for h, Initial residual = 0.0205811, Final residual = 3.95439e-11, No Iterations 4
PIMPLE: Iteration 2
smoothSolver:  Solving for hUx, Initial residual = 0.00551677, Final residual = 0.000202634, No Iterations 1
smoothSolver:  Solving for hUy, Initial residual = 0.000834106, Final residual = 3.15495e-05, No Iterations 1
DICPCG:  Solving for h, Initial residual = 0.000429364, Final residual = 9.54832e-13, No Iterations 4
PIMPLE: Iteration 3
smoothSolver:  Solving for hUx, Initial residual = 0.000373261, Final residual = 2.34356e-11, No Iterations 5
smoothSolver:  Solving for hUy, Initial residual = 2.29858e-05, Final residual = 4.3716e-11, No Iterations 4
DICPCG:  Solving for h, Initial residual = 3.2043e-05, Final residual = 1.00852e-11, No Iterations 3
ExecutionTime = 0.42 s  ClockTime = 1 s


 Time = 6

Courant number mean: 0.200601 max: 0.21562
Gravity wave Courant number max: 0.626869
PIMPLE: Iteration 1
smoothSolver:  Solving for hUx, Initial residual = 0.0413409, Final residual = 0.00161007, No Iterations 1
smoothSolver:  Solving for hUy, Initial residual = 0.0464699, Final residual = 0.00176541, No Iterations 1
DICPCG:  Solving for h, Initial residual = 0.0195831, Final residual = 3.53066e-11, No Iterations 4
PIMPLE: Iteration 2
smoothSolver:  Solving for hUx, Initial residual = 0.00584079, Final residual = 0.000214806, No Iterations 1
smoothSolver:  Solving for hUy, Initial residual = 0.000708195, Final residual = 2.69557e-05, No Iterations 1
DICPCG:  Solving for h, Initial residual = 0.00044167, Final residual = 9.49766e-13, No Iterations 4
PIMPLE: Iteration 3
smoothSolver:  Solving for hUx, Initial residual = 0.000388548, Final residual = 2.51745e-11, No Iterations 5
smoothSolver:  Solving for hUy, Initial residual = 2.41802e-05, Final residual = 4.60265e-11, No Iterations 4
DICPCG:  Solving for h, Initial residual = 3.15432e-05, Final residual = 9.75647e-12, No Iterations 3
ExecutionTime = 0.44 s  ClockTime = 1 s


 Time = 6.1

Courant number mean: 0.200611 max: 0.215604
Gravity wave Courant number max: 0.626806
PIMPLE: Iteration 1
smoothSolver:  Solving for hUx, Initial residual = 0.0411839, Final residual = 0.00159483, No Iterations 1
smoothSolver:  Solving for hUy, Initial residual = 0.0449854, Final residual = 0.00174342, No Iterations 1
DICPCG:  Solving for h, Initial residual = 0.0183941, Final residual = 3.28157e-11, No Iterations 4
PIMPLE: Iteration 2
smoothSolver:  Solving for hUx, Initial residual = 0.00573849, Final residual = 0.000210847, No Iterations 1
smoothSolver:  Solving for hUy, Initial residual = 0.000666658, Final residual = 2.51819e-05, No Iterations 1
DICPCG:  Solving for h, Initial residual = 0.000447196, Final residual = 9.89361e-13, No Iterations 4
PIMPLE: Iteration 3
smoothSolver:  Solving for hUx, Initial residual = 0.000398827, Final residual = 2.68733e-11, No Iterations 5
smoothSolver:  Solving for hUy, Initial residual = 2.35971e-05, Final residual = 4.22908e-11, No Iterations 4
DICPCG:  Solving for h, Initial residual = 3.23076e-05, Final residual = 9.89181e-12, No Iterations 3
ExecutionTime = 0.44 s  ClockTime = 1 s


 Time = 6.2

Courant number mean: 0.200619 max: 0.215596
Gravity wave Courant number max: 0.626695
PIMPLE: Iteration 1
smoothSolver:  Solving for hUx, Initial residual = 0.039614, Final residual = 0.00151293, No Iterations 1
smoothSolver:  Solving for hUy, Initial residual = 0.0398528, Final residual = 0.00156289, No Iterations 1
DICPCG:  Solving for h, Initial residual = 0.0172715, Final residual = 3.23279e-11, No Iterations 4
PIMPLE: Iteration 2
smoothSolver:  Solving for hUx, Initial residual = 0.00510091, Final residual = 0.000191697, No Iterations 1
smoothSolver:  Solving for hUy, Initial residual = 0.000791824, Final residual = 2.9322e-05, No Iterations 1
DICPCG:  Solving for h, Initial residual = 0.000408811, Final residual = 9.16066e-13, No Iterations 4
PIMPLE: Iteration 3
smoothSolver:  Solving for hUx, Initial residual = 0.00035527, Final residual = 2.46906e-11, No Iterations 5
smoothSolver:  Solving for hUy, Initial residual = 2.22584e-05, Final residual = 3.82582e-11, No Iterations 4
DICPCG:  Solving for h, Initial residual = 3.08763e-05, Final residual = 9.30366e-12, No Iterations 3
ExecutionTime = 0.45 s  ClockTime = 1 s


 Time = 6.3

Courant number mean: 0.200625 max: 0.215603
Gravity wave Courant number max: 0.626675
PIMPLE: Iteration 1
smoothSolver:  Solving for hUx, Initial residual = 0.0356877, Final residual = 0.00135379, No Iterations 1
smoothSolver:  Solving for hUy, Initial residual = 0.0375658, Final residual = 0.00143416, No Iterations 1
DICPCG:  Solving for h, Initial residual = 0.017916, Final residual = 3.2323e-11, No Iterations 4
PIMPLE: Iteration 2
smoothSolver:  Solving for hUx, Initial residual = 0.00479451, Final residual = 0.00017771, No Iterations 1
smoothSolver:  Solving for hUy, Initial residual = 0.000835299, Final residual = 3.05781e-05, No Iterations 1
DICPCG:  Solving for h, Initial residual = 0.000393437, Final residual = 8.95709e-13, No Iterations 4
PIMPLE: Iteration 3
smoothSolver:  Solving for hUx, Initial residual = 0.000342607, Final residual = 2.38684e-11, No Iterations 5
smoothSolver:  Solving for hUy, Initial residual = 2.03283e-05, Final residual = 3.57133e-11, No Iterations 4
DICPCG:  Solving for h, Initial residual = 2.86722e-05, Final residual = 9.23708e-12, No Iterations 3
ExecutionTime = 0.46 s  ClockTime = 1 s


 Time = 6.4

Courant number mean: 0.20063 max: 0.215627
Gravity wave Courant number max: 0.626715
PIMPLE: Iteration 1
smoothSolver:  Solving for hUx, Initial residual = 0.0347874, Final residual = 0.00134125, No Iterations 1
smoothSolver:  Solving for hUy, Initial residual = 0.0414787, Final residual = 0.00154589, No Iterations 1
DICPCG:  Solving for h, Initial residual = 0.0178342, Final residual = 3.17506e-11, No Iterations 4
PIMPLE: Iteration 2
smoothSolver:  Solving for hUx, Initial residual = 0.0046689, Final residual = 0.000172699, No Iterations 1
smoothSolver:  Solving for hUy, Initial residual = 0.000795542, Final residual = 2.8605e-05, No Iterations 1
DICPCG:  Solving for h, Initial residual = 0.000402501, Final residual = 8.59332e-13, No Iterations 4
PIMPLE: Iteration 3
smoothSolver:  Solving for hUx, Initial residual = 0.000349193, Final residual = 2.34758e-11, No Iterations 5
smoothSolver:  Solving for hUy, Initial residual = 2.11557e-05, Final residual = 3.99233e-11, No Iterations 4
DICPCG:  Solving for h, Initial residual = 2.91484e-05, Final residual = 9.18096e-12, No Iterations 3
ExecutionTime = 0.47 s  ClockTime = 1 s


 Time = 6.5

Courant number mean: 0.200633 max: 0.215667
Gravity wave Courant number max: 0.62675
PIMPLE: Iteration 1
smoothSolver:  Solving for hUx, Initial residual = 0.0357766, Final residual = 0.00137722, No Iterations 1
smoothSolver:  Solving for hUy, Initial residual = 0.043978, Final residual = 0.00161895, No Iterations 1
DICPCG:  Solving for h, Initial residual = 0.016305, Final residual = 3.10287e-11, No Iterations 4
PIMPLE: Iteration 2
smoothSolver:  Solving for hUx, Initial residual = 0.00475831, Final residual = 0.00017148, No Iterations 1
smoothSolver:  Solving for hUy, Initial residual = 0.000749383, Final residual = 2.64965e-05, No Iterations 1
DICPCG:  Solving for h, Initial residual = 0.000407943, Final residual = 8.96685e-13, No Iterations 4
PIMPLE: Iteration 3
smoothSolver:  Solving for hUx, Initial residual = 0.000352445, Final residual = 2.3806e-11, No Iterations 5
smoothSolver:  Solving for hUy, Initial residual = 1.88044e-05, Final residual = 3.76442e-11, No Iterations 4
DICPCG:  Solving for h, Initial residual = 2.83442e-05, Final residual = 9.26062e-12, No Iterations 3
ExecutionTime = 0.47 s  ClockTime = 1 s


 Time = 6.6

Courant number mean: 0.200634 max: 0.215719
Gravity wave Courant number max: 0.626772
PIMPLE: Iteration 1
smoothSolver:  Solving for hUx, Initial residual = 0.0395247, Final residual = 0.00152775, No Iterations 1
smoothSolver:  Solving for hUy, Initial residual = 0.0442079, Final residual = 0.00161913, No Iterations 1
DICPCG:  Solving for h, Initial residual = 0.0147834, Final residual = 2.96769e-11, No Iterations 4
PIMPLE: Iteration 2
smoothSolver:  Solving for hUx, Initial residual = 0.00481766, Final residual = 0.000172722, No Iterations 1
smoothSolver:  Solving for hUy, Initial residual = 0.00069573, Final residual = 2.47376e-05, No Iterations 1
DICPCG:  Solving for h, Initial residual = 0.000398937, Final residual = 8.83417e-13, No Iterations 4
PIMPLE: Iteration 3
smoothSolver:  Solving for hUx, Initial residual = 0.000344105, Final residual = 2.35954e-11, No Iterations 5
smoothSolver:  Solving for hUy, Initial residual = 1.68215e-05, Final residual = 3.19241e-11, No Iterations 4
DICPCG:  Solving for h, Initial residual = 2.84967e-05, Final residual = 8.79149e-12, No Iterations 3
ExecutionTime = 0.48 s  ClockTime = 1 s


 Time = 6.7

Courant number mean: 0.200637 max: 0.215779
Gravity wave Courant number max: 0.626783
PIMPLE: Iteration 1
smoothSolver:  Solving for hUx, Initial residual = 0.0396403, Final residual = 0.00155226, No Iterations 1
smoothSolver:  Solving for hUy, Initial residual = 0.0458095, Final residual = 0.00169671, No Iterations 1
DICPCG:  Solving for h, Initial residual = 0.014179, Final residual = 2.93033e-11, No Iterations 4
PIMPLE: Iteration 2
smoothSolver:  Solving for hUx, Initial residual = 0.00476459, Final residual = 0.00017326, No Iterations 1
smoothSolver:  Solving for hUy, Initial residual = 0.000654002, Final residual = 2.35883e-05, No Iterations 1
DICPCG:  Solving for h, Initial residual = 0.000373051, Final residual = 8.02174e-13, No Iterations 4
PIMPLE: Iteration 3
smoothSolver:  Solving for hUx, Initial residual = 0.000316701, Final residual = 2.28947e-11, No Iterations 5
smoothSolver:  Solving for hUy, Initial residual = 1.65798e-05, Final residual = 2.99923e-11, No Iterations 4
DICPCG:  Solving for h, Initial residual = 2.63418e-05, Final residual = 8.01111e-12, No Iterations 3
ExecutionTime = 0.48 s  ClockTime = 1 s


 Time = 6.8

Courant number mean: 0.20064 max: 0.215837
Gravity wave Courant number max: 0.626781
PIMPLE: Iteration 1
smoothSolver:  Solving for hUx, Initial residual = 0.0362457, Final residual = 0.0014284, No Iterations 1
smoothSolver:  Solving for hUy, Initial residual = 0.0431948, Final residual = 0.00162721, No Iterations 1
DICPCG:  Solving for h, Initial residual = 0.0148086, Final residual = 2.74835e-11, No Iterations 4
PIMPLE: Iteration 2
smoothSolver:  Solving for hUx, Initial residual = 0.00449127, Final residual = 0.000169427, No Iterations 1
smoothSolver:  Solving for hUy, Initial residual = 0.000599922, Final residual = 2.20734e-05, No Iterations 1
DICPCG:  Solving for h, Initial residual = 0.00035931, Final residual = 7.24754e-13, No Iterations 4
PIMPLE: Iteration 3
smoothSolver:  Solving for hUx, Initial residual = 0.000304803, Final residual = 2.25842e-11, No Iterations 5
smoothSolver:  Solving for hUy, Initial residual = 1.88919e-05, Final residual = 3.25188e-11, No Iterations 4
DICPCG:  Solving for h, Initial residual = 2.69288e-05, Final residual = 7.82844e-12, No Iterations 3
ExecutionTime = 0.49 s  ClockTime = 1 s


 Time = 6.9

Courant number mean: 0.200647 max: 0.21589
Gravity wave Courant number max: 0.626773
PIMPLE: Iteration 1
[...]
DICPCG:  Solving for h, Initial residual = 5.9841e-07, Final residual = 3.76328e-11, No Iterations 2
ExecutionTime = 6.98 s  ClockTime = 7 s


 Time = 98.4

Courant number mean: 0.200509 max: 0.215564
Gravity wave Courant number max: 0.626856
PIMPLE: Iteration 1
smoothSolver:  Solving for hUx, Initial residual = 0.000245478, Final residual = 9.64192e-06, No Iterations 1
smoothSolver:  Solving for hUy, Initial residual = 0.000195358, Final residual = 7.71297e-06, No Iterations 1
DICPCG:  Solving for h, Initial residual = 0.000150345, Final residual = 5.92918e-11, No Iterations 3
PIMPLE: Iteration 2
smoothSolver:  Solving for hUx, Initial residual = 0.000118767, Final residual = 4.53283e-06, No Iterations 1
smoothSolver:  Solving for hUy, Initial residual = 9.50953e-06, Final residual = 3.59707e-07, No Iterations 1
DICPCG:  Solving for h, Initial residual = 9.88246e-06, Final residual = 5.33057e-12, No Iterations 3
PIMPLE: Iteration 3
smoothSolver:  Solving for hUx, Initial residual = 8.61233e-06, Final residual = 1.95749e-11, No Iterations 4
smoothSolver:  Solving for hUy, Initial residual = 1.16837e-06, Final residual = 6.78301e-11, No Iterations 3
DICPCG:  Solving for h, Initial residual = 6.81139e-07, Final residual = 4.63353e-11, No Iterations 2
ExecutionTime = 7 s  ClockTime = 7 s


 Time = 98.5

Courant number mean: 0.200509 max: 0.215563
Gravity wave Courant number max: 0.626856
PIMPLE: Iteration 1
smoothSolver:  Solving for hUx, Initial residual = 0.00026531, Final residual = 1.02005e-05, No Iterations 1
smoothSolver:  Solving for hUy, Initial residual = 0.000158526, Final residual = 6.09195e-06, No Iterations 1
DICPCG:  Solving for h, Initial residual = 9.21181e-05, Final residual = 3.16749e-11, No Iterations 3
PIMPLE: Iteration 2
smoothSolver:  Solving for hUx, Initial residual = 0.000164067, Final residual = 6.07953e-06, No Iterations 1
smoothSolver:  Solving for hUy, Initial residual = 5.46405e-06, Final residual = 2.08427e-07, No Iterations 1
DICPCG:  Solving for h, Initial residual = 1.35477e-05, Final residual = 7.20388e-12, No Iterations 3
PIMPLE: Iteration 3
smoothSolver:  Solving for hUx, Initial residual = 1.2149e-05, Final residual = 2.53545e-11, No Iterations 4
smoothSolver:  Solving for hUy, Initial residual = 1.46588e-06, Final residual = 8.8565e-11, No Iterations 3
DICPCG:  Solving for h, Initial residual = 9.86398e-07, Final residual = 6.37671e-11, No Iterations 2
ExecutionTime = 7 s  ClockTime = 7 s


 Time = 98.6

Courant number mean: 0.200509 max: 0.215563
Gravity wave Courant number max: 0.626857
PIMPLE: Iteration 1
smoothSolver:  Solving for hUx, Initial residual = 0.000226447, Final residual = 8.5795e-06, No Iterations 1
smoothSolver:  Solving for hUy, Initial residual = 0.00013065, Final residual = 5.02354e-06, No Iterations 1
DICPCG:  Solving for h, Initial residual = 0.000102737, Final residual = 4.03303e-11, No Iterations 3
PIMPLE: Iteration 2
smoothSolver:  Solving for hUx, Initial residual = 0.000123904, Final residual = 4.74415e-06, No Iterations 1
smoothSolver:  Solving for hUy, Initial residual = 7.22883e-06, Final residual = 2.75286e-07, No Iterations 1
DICPCG:  Solving for h, Initial residual = 1.0321e-05, Final residual = 5.34825e-12, No Iterations 3
PIMPLE: Iteration 3
smoothSolver:  Solving for hUx, Initial residual = 9.63603e-06, Final residual = 2.0038e-11, No Iterations 4
smoothSolver:  Solving for hUy, Initial residual = 1.10268e-06, Final residual = 6.74223e-11, No Iterations 3
DICPCG:  Solving for h, Initial residual = 7.60948e-07, Final residual = 4.9005e-11, No Iterations 2
ExecutionTime = 7.01 s  ClockTime = 7 s


 Time = 98.7

Courant number mean: 0.200509 max: 0.215564
Gravity wave Courant number max: 0.626857
PIMPLE: Iteration 1
smoothSolver:  Solving for hUx, Initial residual = 0.000181816, Final residual = 6.96189e-06, No Iterations 1
smoothSolver:  Solving for hUy, Initial residual = 0.000142221, Final residual = 5.4218e-06, No Iterations 1
DICPCG:  Solving for h, Initial residual = 0.000119782, Final residual = 5.88177e-11, No Iterations 3
PIMPLE: Iteration 2
smoothSolver:  Solving for hUx, Initial residual = 5.24933e-05, Final residual = 1.99695e-06, No Iterations 1
smoothSolver:  Solving for hUy, Initial residual = 9.78967e-06, Final residual = 3.81988e-07, No Iterations 1
DICPCG:  Solving for h, Initial residual = 4.39961e-06, Final residual = 1.88352e-12, No Iterations 3
PIMPLE: Iteration 3
smoothSolver:  Solving for hUx, Initial residual = 3.65459e-06, Final residual = 8.01219e-12, No Iterations 4
smoothSolver:  Solving for hUy, Initial residual = 4.12886e-07, Final residual = 2.48678e-11, No Iterations 3
DICPCG:  Solving for h, Initial residual = 2.86246e-07, Final residual = 1.72135e-11, No Iterations 2
ExecutionTime = 7.02 s  ClockTime = 7 s


 Time = 98.8

Courant number mean: 0.200509 max: 0.215565
Gravity wave Courant number max: 0.626857
PIMPLE: Iteration 1
smoothSolver:  Solving for hUx, Initial residual = 0.000174595, Final residual = 6.83921e-06, No Iterations 1
smoothSolver:  Solving for hUy, Initial residual = 0.000192269, Final residual = 7.57763e-06, No Iterations 1
DICPCG:  Solving for h, Initial residual = 0.000123855, Final residual = 6.25235e-11, No Iterations 3
PIMPLE: Iteration 2
smoothSolver:  Solving for hUx, Initial residual = 0.00010901, Final residual = 4.2364e-06, No Iterations 1
smoothSolver:  Solving for hUy, Initial residual = 1.0321e-05, Final residual = 3.929e-07, No Iterations 1
DICPCG:  Solving for h, Initial residual = 8.67044e-06, Final residual = 4.74659e-12, No Iterations 3
PIMPLE: Iteration 3
smoothSolver:  Solving for hUx, Initial residual = 7.98783e-06, Final residual = 1.76482e-11, No Iterations 4
smoothSolver:  Solving for hUy, Initial residual = 1.03808e-06, Final residual = 6.07532e-11, No Iterations 3
DICPCG:  Solving for h, Initial residual = 6.2031e-07, Final residual = 4.21863e-11, No Iterations 2
ExecutionTime = 7.02 s  ClockTime = 7 s


 Time = 98.9

Courant number mean: 0.200509 max: 0.215563
Gravity wave Courant number max: 0.626856
PIMPLE: Iteration 1
smoothSolver:  Solving for hUx, Initial residual = 0.000257761, Final residual = 9.92672e-06, No Iterations 1
smoothSolver:  Solving for hUy, Initial residual = 0.000178187, Final residual = 6.82645e-06, No Iterations 1
DICPCG:  Solving for h, Initial residual = 7.80366e-05, Final residual = 3.71597e-11, No Iterations 3
PIMPLE: Iteration 2
smoothSolver:  Solving for hUx, Initial residual = 0.000148802, Final residual = 5.63592e-06, No Iterations 1
smoothSolver:  Solving for hUy, Initial residual = 6.52481e-06, Final residual = 2.49694e-07, No Iterations 1
DICPCG:  Solving for h, Initial residual = 1.27841e-05, Final residual = 7.24591e-12, No Iterations 3
PIMPLE: Iteration 3
smoothSolver:  Solving for hUx, Initial residual = 1.17279e-05, Final residual = 2.60948e-11, No Iterations 4
smoothSolver:  Solving for hUy, Initial residual = 1.49869e-06, Final residual = 9.27915e-11, No Iterations 3
DICPCG:  Solving for h, Initial residual = 9.11538e-07, Final residual = 6.5633e-11, No Iterations 2
ExecutionTime = 7.03 s  ClockTime = 7 s


 Time = 99

Courant number mean: 0.200509 max: 0.215563
Gravity wave Courant number max: 0.626856
PIMPLE: Iteration 1
smoothSolver:  Solving for hUx, Initial residual = 0.000260212, Final residual = 1.00276e-05, No Iterations 1
smoothSolver:  Solving for hUy, Initial residual = 0.000205807, Final residual = 8.15912e-06, No Iterations 1
DICPCG:  Solving for h, Initial residual = 0.000124833, Final residual = 5.58836e-11, No Iterations 3
PIMPLE: Iteration 2
smoothSolver:  Solving for hUx, Initial residual = 0.000129175, Final residual = 5.00955e-06, No Iterations 1
smoothSolver:  Solving for hUy, Initial residual = 9.59485e-06, Final residual = 3.67678e-07, No Iterations 1
DICPCG:  Solving for h, Initial residual = 1.09224e-05, Final residual = 5.81391e-12, No Iterations 3
PIMPLE: Iteration 3
smoothSolver:  Solving for hUx, Initial residual = 1.00725e-05, Final residual = 2.12777e-11, No Iterations 4
smoothSolver:  Solving for hUy, Initial residual = 1.13182e-06, Final residual = 6.81557e-11, No Iterations 3
DICPCG:  Solving for h, Initial residual = 7.85293e-07, Final residual = 5.24268e-11, No Iterations 2
ExecutionTime = 7.05 s  ClockTime = 7 s


 Time = 99.1

Courant number mean: 0.200509 max: 0.215564
Gravity wave Courant number max: 0.626856
PIMPLE: Iteration 1
smoothSolver:  Solving for hUx, Initial residual = 0.000208307, Final residual = 8.13681e-06, No Iterations 1
smoothSolver:  Solving for hUy, Initial residual = 0.000174214, Final residual = 6.73058e-06, No Iterations 1
DICPCG:  Solving for h, Initial residual = 0.000131458, Final residual = 6.92783e-11, No Iterations 3
PIMPLE: Iteration 2
smoothSolver:  Solving for hUx, Initial residual = 8.17363e-05, Final residual = 3.02744e-06, No Iterations 1
smoothSolver:  Solving for hUy, Initial residual = 9.72469e-06, Final residual = 3.82864e-07, No Iterations 1
DICPCG:  Solving for h, Initial residual = 6.443e-06, Final residual = 2.92421e-12, No Iterations 3
PIMPLE: Iteration 3
smoothSolver:  Solving for hUx, Initial residual = 5.45111e-06, Final residual = 1.13486e-11, No Iterations 4
smoothSolver:  Solving for hUy, Initial residual = 6.06309e-07, Final residual = 3.68952e-11, No Iterations 3
DICPCG:  Solving for h, Initial residual = 4.336e-07, Final residual = 2.48707e-11, No Iterations 2
ExecutionTime = 7.05 s  ClockTime = 7 s


 Time = 99.2

Courant number mean: 0.200509 max: 0.215566
Gravity wave Courant number max: 0.626856
PIMPLE: Iteration 1
smoothSolver:  Solving for hUx, Initial residual = 0.00020268, Final residual = 7.85461e-06, No Iterations 1
smoothSolver:  Solving for hUy, Initial residual = 0.000202215, Final residual = 8.10613e-06, No Iterations 1
DICPCG:  Solving for h, Initial residual = 0.000143656, Final residual = 6.59252e-11, No Iterations 3
PIMPLE: Iteration 2
smoothSolver:  Solving for hUx, Initial residual = 0.000106366, Final residual = 4.12919e-06, No Iterations 1
smoothSolver:  Solving for hUy, Initial residual = 1.05674e-05, Final residual = 4.10444e-07, No Iterations 1
DICPCG:  Solving for h, Initial residual = 8.31189e-06, Final residual = 4.39246e-12, No Iterations 3
PIMPLE: Iteration 3
smoothSolver:  Solving for hUx, Initial residual = 7.4335e-06, Final residual = 1.62845e-11, No Iterations 4
smoothSolver:  Solving for hUy, Initial residual = 9.414e-07, Final residual = 5.36786e-11, No Iterations 3
DICPCG:  Solving for h, Initial residual = 5.79588e-07, Final residual = 3.92689e-11, No Iterations 2
ExecutionTime = 7.06 s  ClockTime = 7 s


 Time = 99.3

Courant number mean: 0.200509 max: 0.215565
Gravity wave Courant number max: 0.626856
PIMPLE: Iteration 1
smoothSolver:  Solving for hUx, Initial residual = 0.000251723, Final residual = 9.93699e-06, No Iterations 1
smoothSolver:  Solving for hUy, Initial residual = 0.00018115, Final residual = 7.01866e-06, No Iterations 1
DICPCG:  Solving for h, Initial residual = 0.000102978, Final residual = 4.31773e-11, No Iterations 3
PIMPLE: Iteration 2
smoothSolver:  Solving for hUx, Initial residual = 0.000154798, Final residual = 5.90269e-06, No Iterations 1
smoothSolver:  Solving for hUy, Initial residual = 7.12889e-06, Final residual = 2.75059e-07, No Iterations 1
DICPCG:  Solving for h, Initial residual = 1.30884e-05, Final residual = 7.09685e-12, No Iterations 3
PIMPLE: Iteration 3
smoothSolver:  Solving for hUx, Initial residual = 1.15333e-05, Final residual = 2.52332e-11, No Iterations 4
smoothSolver:  Solving for hUy, Initial residual = 1.48625e-06, Final residual = 9.17482e-11, No Iterations 3
DICPCG:  Solving for h, Initial residual = 9.14745e-07, Final residual = 6.36147e-11, No Iterations 2
ExecutionTime = 7.07 s  ClockTime = 7 s


 Time = 99.4

Courant number mean: 0.200509 max: 0.215563
Gravity wave Courant number max: 0.626856
PIMPLE: Iteration 1
smoothSolver:  Solving for hUx, Initial residual = 0.000255421, Final residual = 9.81372e-06, No Iterations 1
smoothSolver:  Solving for hUy, Initial residual = 0.000185384, Final residual = 7.15335e-06, No Iterations 1
DICPCG:  Solving for h, Initial residual = 0.000128799, Final residual = 5.80683e-11, No Iterations 3
PIMPLE: Iteration 2
smoothSolver:  Solving for hUx, Initial residual = 0.000139615, Final residual = 5.33763e-06, No Iterations 1
smoothSolver:  Solving for hUy, Initial residual = 9.47307e-06, Final residual = 3.64621e-07, No Iterations 1
DICPCG:  Solving for h, Initial residual = 1.19154e-05, Final residual = 6.06929e-12, No Iterations 3
PIMPLE: Iteration 3
smoothSolver:  Solving for hUx, Initial residual = 1.07359e-05, Final residual = 2.27682e-11, No Iterations 4
smoothSolver:  Solving for hUy, Initial residual = 1.23105e-06, Final residual = 7.52539e-11, No Iterations 3
DICPCG:  Solving for h, Initial residual = 8.44364e-07, Final residual = 5.4648e-11, No Iterations 2
ExecutionTime = 7.08 s  ClockTime = 7 s


 Time = 99.5

Courant number mean: 0.200509 max: 0.215563
Gravity wave Courant number max: 0.626857
PIMPLE: Iteration 1
smoothSolver:  Solving for hUx, Initial residual = 0.000233894, Final residual = 9.07316e-06, No Iterations 1
smoothSolver:  Solving for hUy, Initial residual = 0.000202587, Final residual = 7.84023e-06, No Iterations 1
DICPCG:  Solving for h, Initial residual = 0.000155269, Final residual = 7.25183e-11, No Iterations 3
PIMPLE: Iteration 2
smoothSolver:  Solving for hUx, Initial residual = 8.75133e-05, Final residual = 3.26438e-06, No Iterations 1
smoothSolver:  Solving for hUy, Initial residual = 1.21625e-05, Final residual = 4.64635e-07, No Iterations 1
DICPCG:  Solving for h, Initial residual = 7.01768e-06, Final residual = 3.50759e-12, No Iterations 3
PIMPLE: Iteration 3
smoothSolver:  Solving for hUx, Initial residual = 5.86096e-06, Final residual = 1.26417e-11, No Iterations 4
smoothSolver:  Solving for hUy, Initial residual = 6.84764e-07, Final residual = 4.09377e-11, No Iterations 3
DICPCG:  Solving for h, Initial residual = 4.69896e-07, Final residual = 2.78659e-11, No Iterations 2
ExecutionTime = 7.08 s  ClockTime = 7 s


 Time = 99.6

Courant number mean: 0.200509 max: 0.215564
Gravity wave Courant number max: 0.626857
PIMPLE: Iteration 1
smoothSolver:  Solving for hUx, Initial residual = 0.00023708, Final residual = 9.27724e-06, No Iterations 1
smoothSolver:  Solving for hUy, Initial residual = 0.000239519, Final residual = 9.5202e-06, No Iterations 1
DICPCG:  Solving for h, Initial residual = 0.00013532, Final residual = 6.00445e-11, No Iterations 3
PIMPLE: Iteration 2
smoothSolver:  Solving for hUx, Initial residual = 0.000119319, Final residual = 4.54061e-06, No Iterations 1
smoothSolver:  Solving for hUy, Initial residual = 9.58515e-06, Final residual = 3.65109e-07, No Iterations 1
DICPCG:  Solving for h, Initial residual = 9.46131e-06, Final residual = 4.98354e-12, No Iterations 3
PIMPLE: Iteration 3
smoothSolver:  Solving for hUx, Initial residual = 8.42186e-06, Final residual = 1.84089e-11, No Iterations 4
smoothSolver:  Solving for hUy, Initial residual = 1.09741e-06, Final residual = 6.32212e-11, No Iterations 3
DICPCG:  Solving for h, Initial residual = 6.60124e-07, Final residual = 4.29508e-11, No Iterations 2
ExecutionTime = 7.09 s  ClockTime = 7 s


 Time = 99.7

Courant number mean: 0.200509 max: 0.215564
Gravity wave Courant number max: 0.626857
PIMPLE: Iteration 1
smoothSolver:  Solving for hUx, Initial residual = 0.000265911, Final residual = 1.02163e-05, No Iterations 1
smoothSolver:  Solving for hUy, Initial residual = 0.000187585, Final residual = 7.31399e-06, No Iterations 1
DICPCG:  Solving for h, Initial residual = 9.71453e-05, Final residual = 3.9361e-11, No Iterations 3
PIMPLE: Iteration 2
smoothSolver:  Solving for hUx, Initial residual = 0.000144112, Final residual = 5.36311e-06, No Iterations 1
smoothSolver:  Solving for hUy, Initial residual = 6.15682e-06, Final residual = 2.37964e-07, No Iterations 1
DICPCG:  Solving for h, Initial residual = 1.19408e-05, Final residual = 6.44541e-12, No Iterations 3
PIMPLE: Iteration 3
smoothSolver:  Solving for hUx, Initial residual = 1.0886e-05, Final residual = 2.36131e-11, No Iterations 4
smoothSolver:  Solving for hUy, Initial residual = 1.36691e-06, Final residual = 8.33182e-11, No Iterations 3
DICPCG:  Solving for h, Initial residual = 8.68848e-07, Final residual = 5.88595e-11, No Iterations 2
ExecutionTime = 7.09 s  ClockTime = 7 s


 Time = 99.8

Courant number mean: 0.200509 max: 0.215563
Gravity wave Courant number max: 0.626857
PIMPLE: Iteration 1
smoothSolver:  Solving for hUx, Initial residual = 0.000218445, Final residual = 8.4651e-06, No Iterations 1
smoothSolver:  Solving for hUy, Initial residual = 0.000161947, Final residual = 6.30917e-06, No Iterations 1
DICPCG:  Solving for h, Initial residual = 9.55657e-05, Final residual = 4.11024e-11, No Iterations 3
PIMPLE: Iteration 2
smoothSolver:  Solving for hUx, Initial residual = 0.000117975, Final residual = 4.51241e-06, No Iterations 1
smoothSolver:  Solving for hUy, Initial residual = 6.0688e-06, Final residual = 2.32145e-07, No Iterations 1
DICPCG:  Solving for h, Initial residual = 9.46757e-06, Final residual = 5.14927e-12, No Iterations 3
PIMPLE: Iteration 3
smoothSolver:  Solving for hUx, Initial residual = 8.73394e-06, Final residual = 1.85303e-11, No Iterations 4
smoothSolver:  Solving for hUy, Initial residual = 1.01302e-06, Final residual = 6.10903e-11, No Iterations 3
DICPCG:  Solving for h, Initial residual = 6.79423e-07, Final residual = 4.51031e-11, No Iterations 2
ExecutionTime = 7.1 s  ClockTime = 7 s


 Time = 99.9

Courant number mean: 0.200509 max: 0.215563
Gravity wave Courant number max: 0.626856
PIMPLE: Iteration 1
smoothSolver:  Solving for hUx, Initial residual = 0.00017755, Final residual = 6.90203e-06, No Iterations 1
smoothSolver:  Solving for hUy, Initial residual = 0.000143319, Final residual = 5.64997e-06, No Iterations 1
DICPCG:  Solving for h, Initial residual = 9.9279e-05, Final residual = 5.18433e-11, No Iterations 3
PIMPLE: Iteration 2
smoothSolver:  Solving for hUx, Initial residual = 6.86074e-05, Final residual = 2.68042e-06, No Iterations 1
smoothSolver:  Solving for hUy, Initial residual = 7.11746e-06, Final residual = 2.79326e-07, No Iterations 1
DICPCG:  Solving for h, Initial residual = 5.53042e-06, Final residual = 2.79864e-12, No Iterations 3
PIMPLE: Iteration 3
smoothSolver:  Solving for hUx, Initial residual = 4.73655e-06, Final residual = 1.05348e-11, No Iterations 4
smoothSolver:  Solving for hUy, Initial residual = 5.56522e-07, Final residual = 3.46689e-11, No Iterations 3
DICPCG:  Solving for h, Initial residual = 3.71927e-07, Final residual = 2.51506e-11, No Iterations 2
ExecutionTime = 7.1 s  ClockTime = 7 s


 Time = 100

Courant number mean: 0.200509 max: 0.215565
Gravity wave Courant number max: 0.626856
PIMPLE: Iteration 1
smoothSolver:  Solving for hUx, Initial residual = 0.000159499, Final residual = 6.21882e-06, No Iterations 1
smoothSolver:  Solving for hUy, Initial residual = 0.000190464, Final residual = 7.64151e-06, No Iterations 1
DICPCG:  Solving for h, Initial residual = 0.000126778, Final residual = 6.08618e-11, No Iterations 3
PIMPLE: Iteration 2
smoothSolver:  Solving for hUx, Initial residual = 7.71424e-05, Final residual = 3.07739e-06, No Iterations 1
smoothSolver:  Solving for hUy, Initial residual = 1.03473e-05, Final residual = 3.98551e-07, No Iterations 1
DICPCG:  Solving for h, Initial residual = 6.15703e-06, Final residual = 3.50167e-12, No Iterations 3
PIMPLE: Iteration 3
smoothSolver:  Solving for hUx, Initial residual = 5.41666e-06, Final residual = 1.26522e-11, No Iterations 4
smoothSolver:  Solving for hUy, Initial residual = 6.89557e-07, Final residual = 4.11276e-11, No Iterations 3
DICPCG:  Solving for h, Initial residual = 4.28401e-07, Final residual = 3.03379e-11, No Iterations 2
ExecutionTime = 7.13 s  ClockTime = 7 s

End

