/*---------------------------------------------------------------------------*\
  =========                 |
  \\      /  F ield         | OpenFOAM: The Open Source CFD Toolbox
   \\    /   O peration     | Website:  https://openfoam.org
    \\  /    A nd           | Version:  9
     \\/     M anipulation  |
\*---------------------------------------------------------------------------*/
Build  : 9
Exec   : solidDisplacementFoam
Date   : May 10 2022
Time   : 10:02:33
Host   : "GFreya"
PID    : 5311
I/O    : uncollated
Case   : /root/OpenFOAM/root-9/run/tutorials/stressAnalysis/solidDisplacementFoam/plateHole
nProcs : 1
sigFpe : Enabling floating point exception trapping (FOAM_SIGFPE).
fileModificationChecking : Monitoring run-time modified files using timeStampMaster (fileModificationSkew 10)
allowSystemOperations : Allowing user-supplied system call operations

// * * * * * * * * * * * * * * * * * * * * * * * * * * * * * * * * * * * * * //
Create time

Create mesh for time = 0

Reading thermophysical properties

Calculating Lame's coefficients

Reading field D

Calculating stress field sigmaD

Calculating explicit part of div(sigma) divSigmaExp

No fvModels present
No fvConstraints present

Calculating displacement field

Iteration: 1

GAMG:  Solving for Dx, Initial residual = 1, Final residual = 0.475327, No Iterations 2
GAMG:  Solving for Dy, Initial residual = 0, Final residual = 0, No Iterations 0
ExecutionTime = 0.03 s  ClockTime = 0 s

Iteration: 2

GAMG:  Solving for Dx, Initial residual = 0.0212781, Final residual = 0.00679411, No Iterations 1
GAMG:  Solving for Dy, Initial residual = 1, Final residual = 0.43377, No Iterations 1
ExecutionTime = 0.04 s  ClockTime = 0 s

Iteration: 3

GAMG:  Solving for Dx, Initial residual = 0.0109591, Final residual = 0.00282969, No Iterations 1
GAMG:  Solving for Dy, Initial residual = 0.103339, Final residual = 0.0358803, No Iterations 1
ExecutionTime = 0.04 s  ClockTime = 0 s

Iteration: 4

GAMG:  Solving for Dx, Initial residual = 0.00638187, Final residual = 0.00159923, No Iterations 1
GAMG:  Solving for Dy, Initial residual = 0.0346031, Final residual = 0.0117734, No Iterations 1
ExecutionTime = 0.04 s  ClockTime = 0 s

Iteration: 5

GAMG:  Solving for Dx, Initial residual = 0.003905, Final residual = 0.00114538, No Iterations 1
GAMG:  Solving for Dy, Initial residual = 0.0194123, Final residual = 0.00643846, No Iterations 1
ExecutionTime = 0.04 s  ClockTime = 0 s

Iteration: 6

GAMG:  Solving for Dx, Initial residual = 0.00374931, Final residual = 0.00106175, No Iterations 1
GAMG:  Solving for Dy, Initial residual = 0.0147657, Final residual = 0.00420327, No Iterations 1
ExecutionTime = 0.04 s  ClockTime = 0 s

Iteration: 7

GAMG:  Solving for Dx, Initial residual = 0.00282447, Final residual = 0.000819927, No Iterations 1
GAMG:  Solving for Dy, Initial residual = 0.0103921, Final residual = 0.00330788, No Iterations 1
ExecutionTime = 0.05 s  ClockTime = 0 s

Iteration: 8

GAMG:  Solving for Dx, Initial residual = 0.00242142, Final residual = 0.000819227, No Iterations 1
GAMG:  Solving for Dy, Initial residual = 0.00872186, Final residual = 0.00276703, No Iterations 1
ExecutionTime = 0.05 s  ClockTime = 0 s

Iteration: 9

GAMG:  Solving for Dx, Initial residual = 0.00221398, Final residual = 0.000729997, No Iterations 1
GAMG:  Solving for Dy, Initial residual = 0.00746137, Final residual = 0.00227741, No Iterations 1
ExecutionTime = 0.05 s  ClockTime = 0 s

Iteration: 10

GAMG:  Solving for Dx, Initial residual = 0.00201582, Final residual = 0.000691482, No Iterations 1
GAMG:  Solving for Dy, Initial residual = 0.0065898, Final residual = 0.00198884, No Iterations 1
ExecutionTime = 0.05 s  ClockTime = 0 s

Iteration: 11

GAMG:  Solving for Dx, Initial residual = 0.00185032, Final residual = 0.000628706, No Iterations 1
GAMG:  Solving for Dy, Initial residual = 0.00584732, Final residual = 0.00173418, No Iterations 1
ExecutionTime = 0.06 s  ClockTime = 0 s

Iteration: 12

GAMG:  Solving for Dx, Initial residual = 0.00169871, Final residual = 0.000585806, No Iterations 1
GAMG:  Solving for Dy, Initial residual = 0.00523935, Final residual = 0.00154018, No Iterations 1
ExecutionTime = 0.06 s  ClockTime = 0 s

Iteration: 13

GAMG:  Solving for Dx, Initial residual = 0.00156342, Final residual = 0.000539424, No Iterations 1
GAMG:  Solving for Dy, Initial residual = 0.00470781, Final residual = 0.0013735, No Iterations 1
ExecutionTime = 0.06 s  ClockTime = 0 s

Iteration: 14

GAMG:  Solving for Dx, Initial residual = 0.00144135, Final residual = 0.000501364, No Iterations 1
GAMG:  Solving for Dy, Initial residual = 0.00424894, Final residual = 0.00123356, No Iterations 1
ExecutionTime = 0.06 s  ClockTime = 0 s

Iteration: 15

GAMG:  Solving for Dx, Initial residual = 0.00133117, Final residual = 0.000464688, No Iterations 1
GAMG:  Solving for Dy, Initial residual = 0.0038451, Final residual = 0.00111185, No Iterations 1
ExecutionTime = 0.06 s  ClockTime = 0 s

Iteration: 16

GAMG:  Solving for Dx, Initial residual = 0.00123128, Final residual = 0.000432249, No Iterations 1
GAMG:  Solving for Dy, Initial residual = 0.00349082, Final residual = 0.00100621, No Iterations 1
ExecutionTime = 0.07 s  ClockTime = 0 s

Iteration: 17

GAMG:  Solving for Dx, Initial residual = 0.00114031, Final residual = 0.000402114, No Iterations 1
GAMG:  Solving for Dy, Initial residual = 0.00317757, Final residual = 0.000913517, No Iterations 1
ExecutionTime = 0.07 s  ClockTime = 0 s

Iteration: 18

GAMG:  Solving for Dx, Initial residual = 0.00105711, Final residual = 0.000374625, No Iterations 1
GAMG:  Solving for Dy, Initial residual = 0.00290021, Final residual = 0.000832039, No Iterations 1
ExecutionTime = 0.07 s  ClockTime = 0 s

Iteration: 19

GAMG:  Solving for Dx, Initial residual = 0.000980796, Final residual = 0.000349105, No Iterations 1
GAMG:  Solving for Dy, Initial residual = 0.00265403, Final residual = 0.000760008, No Iterations 1
ExecutionTime = 0.08 s  ClockTime = 0 s

Iteration: 20

GAMG:  Solving for Dx, Initial residual = 0.000910848, Final residual = 0.000325507, No Iterations 1
GAMG:  Solving for Dy, Initial residual = 0.00243427, Final residual = 0.00069595, No Iterations 1
Max sigmaEq = 26251.2
ExecutionTime = 0.09 s  ClockTime = 0 s

Iteration: 21

GAMG:  Solving for Dx, Initial residual = 0.000846547, Final residual = 0.000303582, No Iterations 1
GAMG:  Solving for Dy, Initial residual = 0.00223724, Final residual = 0.000638803, No Iterations 1
ExecutionTime = 0.1 s  ClockTime = 0 s

Iteration: 22

GAMG:  Solving for Dx, Initial residual = 0.000787347, Final residual = 0.000283243, No Iterations 1
GAMG:  Solving for Dy, Initial residual = 0.00206007, Final residual = 0.000587555, No Iterations 1
ExecutionTime = 0.1 s  ClockTime = 0 s

Iteration: 23

GAMG:  Solving for Dx, Initial residual = 0.000732788, Final residual = 0.00026436, No Iterations 1
GAMG:  Solving for Dy, Initial residual = 0.00190009, Final residual = 0.000541423, No Iterations 1
ExecutionTime = 0.1 s  ClockTime = 0 s

Iteration: 24

GAMG:  Solving for Dx, Initial residual = 0.000682487, Final residual = 0.000246812, No Iterations 1
GAMG:  Solving for Dy, Initial residual = 0.00175545, Final residual = 0.000499769, No Iterations 1
ExecutionTime = 0.1 s  ClockTime = 0 s

Iteration: 25

GAMG:  Solving for Dx, Initial residual = 0.000636005, Final residual = 0.000230493, No Iterations 1
GAMG:  Solving for Dy, Initial residual = 0.00162433, Final residual = 0.000461988, No Iterations 1
ExecutionTime = 0.1 s  ClockTime = 0 s

Iteration: 26

GAMG:  Solving for Dx, Initial residual = 0.000592991, Final residual = 0.000215316, No Iterations 1
GAMG:  Solving for Dy, Initial residual = 0.00150488, Final residual = 0.000427621, No Iterations 1
ExecutionTime = 0.1 s  ClockTime = 0 s

Iteration: 27

GAMG:  Solving for Dx, Initial residual = 0.000553164, Final residual = 0.00020119, No Iterations 1
GAMG:  Solving for Dy, Initial residual = 0.00139578, Final residual = 0.000396274, No Iterations 1
ExecutionTime = 0.11 s  ClockTime = 0 s

Iteration: 28

GAMG:  Solving for Dx, Initial residual = 0.000516273, Final residual = 0.000188037, No Iterations 1
GAMG:  Solving for Dy, Initial residual = 0.00129592, Final residual = 0.00036763, No Iterations 1
ExecutionTime = 0.11 s  ClockTime = 0 s

Iteration: 29

GAMG:  Solving for Dx, Initial residual = 0.000482052, Final residual = 0.000175786, No Iterations 1
GAMG:  Solving for Dy, Initial residual = 0.00120434, Final residual = 0.000341459, No Iterations 1
ExecutionTime = 0.11 s  ClockTime = 0 s

Iteration: 30

GAMG:  Solving for Dx, Initial residual = 0.000450301, Final residual = 0.00016437, No Iterations 1
GAMG:  Solving for Dy, Initial residual = 0.00112023, Final residual = 0.000317441, No Iterations 1
ExecutionTime = 0.11 s  ClockTime = 0 s

Iteration: 31

GAMG:  Solving for Dx, Initial residual = 0.000420788, Final residual = 0.00015373, No Iterations 1
GAMG:  Solving for Dy, Initial residual = 0.00104279, Final residual = 0.000295346, No Iterations 1
ExecutionTime = 0.11 s  ClockTime = 0 s

Iteration: 32

GAMG:  Solving for Dx, Initial residual = 0.000393325, Final residual = 0.000143809, No Iterations 1
GAMG:  Solving for Dy, Initial residual = 0.000971417, Final residual = 0.000274987, No Iterations 1
ExecutionTime = 0.11 s  ClockTime = 0 s

Iteration: 33

GAMG:  Solving for Dx, Initial residual = 0.000367757, Final residual = 0.000134556, No Iterations 1
GAMG:  Solving for Dy, Initial residual = 0.000905526, Final residual = 0.000256207, No Iterations 1
ExecutionTime = 0.12 s  ClockTime = 0 s

Iteration: 34

GAMG:  Solving for Dx, Initial residual = 0.000343957, Final residual = 0.000125923, No Iterations 1
GAMG:  Solving for Dy, Initial residual = 0.000844611, Final residual = 0.000238872, No Iterations 1
ExecutionTime = 0.12 s  ClockTime = 0 s

Iteration: 35

GAMG:  Solving for Dx, Initial residual = 0.0003219, Final residual = 0.000117867, No Iterations 1
GAMG:  Solving for Dy, Initial residual = 0.000788223, Final residual = 0.000222837, No Iterations 1
ExecutionTime = 0.12 s  ClockTime = 0 s

Iteration: 36

GAMG:  Solving for Dx, Initial residual = 0.000301345, Final residual = 0.000110346, No Iterations 1
GAMG:  Solving for Dy, Initial residual = 0.000735974, Final residual = 0.000207985, No Iterations 1
ExecutionTime = 0.12 s  ClockTime = 0 s

Iteration: 37

GAMG:  Solving for Dx, Initial residual = 0.000282193, Final residual = 0.000103324, No Iterations 1
GAMG:  Solving for Dy, Initial residual = 0.000687524, Final residual = 0.000194212, No Iterations 1
ExecutionTime = 0.12 s  ClockTime = 0 s

Iteration: 38

GAMG:  Solving for Dx, Initial residual = 0.000264358, Final residual = 9.67658e-05, No Iterations 1
GAMG:  Solving for Dy, Initial residual = 0.000642526, Final residual = 0.000181427, No Iterations 1
ExecutionTime = 0.12 s  ClockTime = 0 s

Iteration: 39

GAMG:  Solving for Dx, Initial residual = 0.000247722, Final residual = 9.06386e-05, No Iterations 1
GAMG:  Solving for Dy, Initial residual = 0.000600729, Final residual = 0.000169548, No Iterations 1
ExecutionTime = 0.13 s  ClockTime = 0 s

Iteration: 40

GAMG:  Solving for Dx, Initial residual = 0.000232177, Final residual = 8.49129e-05, No Iterations 1
GAMG:  Solving for Dy, Initial residual = 0.000561891, Final residual = 0.000158507, No Iterations 1
Max sigmaEq = 28183
ExecutionTime = 0.14 s  ClockTime = 0 s

Iteration: 41

GAMG:  Solving for Dx, Initial residual = 0.000217648, Final residual = 7.95611e-05, No Iterations 1
GAMG:  Solving for Dy, Initial residual = 0.000525748, Final residual = 0.000148235, No Iterations 1
ExecutionTime = 0.14 s  ClockTime = 0 s

Iteration: 42

GAMG:  Solving for Dx, Initial residual = 0.000204064, Final residual = 7.45591e-05, No Iterations 1
GAMG:  Solving for Dy, Initial residual = 0.000492092, Final residual = 0.000138675, No Iterations 1
ExecutionTime = 0.14 s  ClockTime = 0 s

Iteration: 43

GAMG:  Solving for Dx, Initial residual = 0.00019136, Final residual = 6.98822e-05, No Iterations 1
GAMG:  Solving for Dy, Initial residual = 0.000460732, Final residual = 0.00012977, No Iterations 1
ExecutionTime = 0.15 s  ClockTime = 0 s

Iteration: 44

GAMG:  Solving for Dx, Initial residual = 0.000179477, Final residual = 6.5508e-05, No Iterations 1
GAMG:  Solving for Dy, Initial residual = 0.000431495, Final residual = 0.000121475, No Iterations 1
ExecutionTime = 0.15 s  ClockTime = 0 s

Iteration: 45

GAMG:  Solving for Dx, Initial residual = 0.000168358, Final residual = 6.14161e-05, No Iterations 1
GAMG:  Solving for Dy, Initial residual = 0.000404224, Final residual = 0.000113743, No Iterations 1
ExecutionTime = 0.15 s  ClockTime = 0 s

Iteration: 46

GAMG:  Solving for Dx, Initial residual = 0.000157972, Final residual = 5.75884e-05, No Iterations 1
GAMG:  Solving for Dy, Initial residual = 0.000378774, Final residual = 0.00010653, No Iterations 1
ExecutionTime = 0.15 s  ClockTime = 0 s

Iteration: 47

GAMG:  Solving for Dx, Initial residual = 0.000148259, Final residual = 5.40064e-05, No Iterations 1
GAMG:  Solving for Dy, Initial residual = 0.000355015, Final residual = 9.98e-05, No Iterations 1
ExecutionTime = 0.15 s  ClockTime = 0 s

Iteration: 48

GAMG:  Solving for Dx, Initial residual = 0.000139162, Final residual = 5.06537e-05, No Iterations 1
GAMG:  Solving for Dy, Initial residual = 0.000332825, Final residual = 9.35381e-05, No Iterations 1
ExecutionTime = 0.16 s  ClockTime = 0 s

Iteration: 49

GAMG:  Solving for Dx, Initial residual = 0.000130642, Final residual = 4.75151e-05, No Iterations 1
GAMG:  Solving for Dy, Initial residual = 0.000312091, Final residual = 8.76889e-05, No Iterations 1
ExecutionTime = 0.16 s  ClockTime = 0 s

Iteration: 50

GAMG:  Solving for Dx, Initial residual = 0.00012266, Final residual = 4.45765e-05, No Iterations 1
GAMG:  Solving for Dy, Initial residual = 0.00029271, Final residual = 8.22235e-05, No Iterations 1
ExecutionTime = 0.16 s  ClockTime = 0 s

Iteration: 51

GAMG:  Solving for Dx, Initial residual = 0.00011518, Final residual = 4.18246e-05, No Iterations 1
GAMG:  Solving for Dy, Initial residual = 0.000274588, Final residual = 7.71147e-05, No Iterations 1
ExecutionTime = 0.16 s  ClockTime = 0 s

Iteration: 52

GAMG:  Solving for Dx, Initial residual = 0.00010817, Final residual = 3.92473e-05, No Iterations 1
GAMG:  Solving for Dy, Initial residual = 0.000257638, Final residual = 7.23377e-05, No Iterations 1
ExecutionTime = 0.16 s  ClockTime = 0 s

Iteration: 53

GAMG:  Solving for Dx, Initial residual = 0.000101599, Final residual = 3.68332e-05, No Iterations 1
GAMG:  Solving for Dy, Initial residual = 0.000241778, Final residual = 6.78688e-05, No Iterations 1
ExecutionTime = 0.16 s  ClockTime = 0 s

Iteration: 54

GAMG:  Solving for Dx, Initial residual = 9.54379e-05, Final residual = 3.45717e-05, No Iterations 1
GAMG:  Solving for Dy, Initial residual = 0.000226939, Final residual = 6.3687e-05, No Iterations 1
ExecutionTime = 0.17 s  ClockTime = 0 s

Iteration: 55

GAMG:  Solving for Dx, Initial residual = 8.96609e-05, Final residual = 3.24526e-05, No Iterations 1
GAMG:  Solving for Dy, Initial residual = 0.000213055, Final residual = 5.97728e-05, No Iterations 1
ExecutionTime = 0.18 s  ClockTime = 0 s

Iteration: 56

GAMG:  Solving for Dx, Initial residual = 8.4243e-05, Final residual = 3.04669e-05, No Iterations 1
GAMG:  Solving for Dy, Initial residual = 0.000200061, Final residual = 5.61082e-05, No Iterations 1
ExecutionTime = 0.18 s  ClockTime = 0 s

Iteration: 57

GAMG:  Solving for Dx, Initial residual = 7.91613e-05, Final residual = 2.86062e-05, No Iterations 1
GAMG:  Solving for Dy, Initial residual = 0.000187889, Final residual = 5.26764e-05, No Iterations 1
ExecutionTime = 0.18 s  ClockTime = 0 s

Iteration: 58

GAMG:  Solving for Dx, Initial residual = 7.4394e-05, Final residual = 2.68625e-05, No Iterations 1
GAMG:  Solving for Dy, Initial residual = 0.000176485, Final residual = 4.94619e-05, No Iterations 1
ExecutionTime = 0.18 s  ClockTime = 0 s

Iteration: 59

GAMG:  Solving for Dx, Initial residual = 6.99214e-05, Final residual = 2.52279e-05, No Iterations 1
GAMG:  Solving for Dy, Initial residual = 0.000165797, Final residual = 4.64503e-05, No Iterations 1
ExecutionTime = 0.18 s  ClockTime = 0 s

Iteration: 60

GAMG:  Solving for Dx, Initial residual = 6.57244e-05, Final residual = 2.36951e-05, No Iterations 1
GAMG:  Solving for Dy, Initial residual = 0.000155778, Final residual = 4.36282e-05, No Iterations 1
Max sigmaEq = 28673.2
ExecutionTime = 0.2 s  ClockTime = 0 s

Iteration: 61

GAMG:  Solving for Dx, Initial residual = 6.17857e-05, Final residual = 2.2258e-05, No Iterations 1
GAMG:  Solving for Dy, Initial residual = 0.000146385, Final residual = 4.09833e-05, No Iterations 1
ExecutionTime = 0.2 s  ClockTime = 0 s

Iteration: 62

GAMG:  Solving for Dx, Initial residual = 5.80887e-05, Final residual = 2.09103e-05, No Iterations 1
GAMG:  Solving for Dy, Initial residual = 0.000137578, Final residual = 3.8504e-05, No Iterations 1
ExecutionTime = 0.2 s  ClockTime = 0 s

Iteration: 63

GAMG:  Solving for Dx, Initial residual = 5.46183e-05, Final residual = 1.96462e-05, No Iterations 1
GAMG:  Solving for Dy, Initial residual = 0.000129316, Final residual = 3.61797e-05, No Iterations 1
ExecutionTime = 0.21 s  ClockTime = 0 s

Iteration: 64

GAMG:  Solving for Dx, Initial residual = 5.13601e-05, Final residual = 1.84604e-05, No Iterations 1
GAMG:  Solving for Dy, Initial residual = 0.000121567, Final residual = 3.4e-05, No Iterations 1
ExecutionTime = 0.21 s  ClockTime = 0 s

Iteration: 65

GAMG:  Solving for Dx, Initial residual = 4.83009e-05, Final residual = 1.73479e-05, No Iterations 1
GAMG:  Solving for Dy, Initial residual = 0.000114295, Final residual = 3.19556e-05, No Iterations 1
ExecutionTime = 0.21 s  ClockTime = 0 s

Iteration: 66

GAMG:  Solving for Dx, Initial residual = 4.54282e-05, Final residual = 1.6304e-05, No Iterations 1
GAMG:  Solving for Dy, Initial residual = 0.000107472, Final residual = 3.00377e-05, No Iterations 1
ExecutionTime = 0.21 s  ClockTime = 0 s

Iteration: 67

GAMG:  Solving for Dx, Initial residual = 4.27303e-05, Final residual = 1.53245e-05, No Iterations 1
GAMG:  Solving for Dy, Initial residual = 0.000101067, Final residual = 2.82382e-05, No Iterations 1
ExecutionTime = 0.21 s  ClockTime = 0 s

Iteration: 68

GAMG:  Solving for Dx, Initial residual = 4.01962e-05, Final residual = 1.44053e-05, No Iterations 1
GAMG:  Solving for Dy, Initial residual = 9.50569e-05, Final residual = 2.65496e-05, No Iterations 1
ExecutionTime = 0.22 s  ClockTime = 0 s

Iteration: 69

GAMG:  Solving for Dx, Initial residual = 3.78161e-05, Final residual = 1.35427e-05, No Iterations 1
GAMG:  Solving for Dy, Initial residual = 8.94139e-05, Final residual = 2.49646e-05, No Iterations 1
ExecutionTime = 0.22 s  ClockTime = 0 s

Iteration: 70

GAMG:  Solving for Dx, Initial residual = 3.55801e-05, Final residual = 1.2733e-05, No Iterations 1
GAMG:  Solving for Dy, Initial residual = 8.41151e-05, Final residual = 2.34769e-05, No Iterations 1
ExecutionTime = 0.22 s  ClockTime = 0 s

Iteration: 71

GAMG:  Solving for Dx, Initial residual = 3.34793e-05, Final residual = 1.19727e-05, No Iterations 1
GAMG:  Solving for Dy, Initial residual = 7.91387e-05, Final residual = 2.20801e-05, No Iterations 1
ExecutionTime = 0.22 s  ClockTime = 0 s

Iteration: 72

GAMG:  Solving for Dx, Initial residual = 3.15053e-05, Final residual = 1.1259e-05, No Iterations 1
GAMG:  Solving for Dy, Initial residual = 7.44644e-05, Final residual = 2.07688e-05, No Iterations 1
ExecutionTime = 0.22 s  ClockTime = 0 s

Iteration: 73

GAMG:  Solving for Dx, Initial residual = 2.96502e-05, Final residual = 1.05887e-05, No Iterations 1
GAMG:  Solving for Dy, Initial residual = 7.00734e-05, Final residual = 1.95374e-05, No Iterations 1
ExecutionTime = 0.22 s  ClockTime = 0 s

Iteration: 74

GAMG:  Solving for Dx, Initial residual = 2.79068e-05, Final residual = 9.95932e-06, No Iterations 1
GAMG:  Solving for Dy, Initial residual = 6.59479e-05, Final residual = 1.83809e-05, No Iterations 1
ExecutionTime = 0.22 s  ClockTime = 0 s

Iteration: 75

GAMG:  Solving for Dx, Initial residual = 2.6268e-05, Final residual = 9.36817e-06, No Iterations 1
GAMG:  Solving for Dy, Initial residual = 6.20714e-05, Final residual = 1.72945e-05, No Iterations 1
ExecutionTime = 0.23 s  ClockTime = 0 s

Iteration: 76

GAMG:  Solving for Dx, Initial residual = 2.47279e-05, Final residual = 8.81293e-06, No Iterations 1
GAMG:  Solving for Dy, Initial residual = 5.84283e-05, Final residual = 1.6274e-05, No Iterations 1
ExecutionTime = 0.23 s  ClockTime = 0 s

Iteration: 77

GAMG:  Solving for Dx, Initial residual = 2.328e-05, Final residual = 8.29136e-06, No Iterations 1
GAMG:  Solving for Dy, Initial residual = 5.50043e-05, Final residual = 1.53152e-05, No Iterations 1
ExecutionTime = 0.23 s  ClockTime = 0 s

Iteration: 78

GAMG:  Solving for Dx, Initial residual = 2.19186e-05, Final residual = 7.80136e-06, No Iterations 1
GAMG:  Solving for Dy, Initial residual = 5.17858e-05, Final residual = 1.44144e-05, No Iterations 1
ExecutionTime = 0.23 s  ClockTime = 0 s

Iteration: 79

GAMG:  Solving for Dx, Initial residual = 2.06386e-05, Final residual = 7.34097e-06, No Iterations 1
GAMG:  Solving for Dy, Initial residual = 4.876e-05, Final residual = 1.35678e-05, No Iterations 1
ExecutionTime = 0.23 s  ClockTime = 0 s

Iteration: 80

GAMG:  Solving for Dx, Initial residual = 1.94348e-05, Final residual = 6.90835e-06, No Iterations 1
GAMG:  Solving for Dy, Initial residual = 4.59152e-05, Final residual = 1.27721e-05, No Iterations 1
Max sigmaEq = 28807.3
ExecutionTime = 0.25 s  ClockTime = 0 s

Iteration: 81

GAMG:  Solving for Dx, Initial residual = 1.83028e-05, Final residual = 6.50179e-06, No Iterations 1
GAMG:  Solving for Dy, Initial residual = 4.32422e-05, Final residual = 1.20242e-05, No Iterations 1
ExecutionTime = 0.25 s  ClockTime = 0 s

Iteration: 82

GAMG:  Solving for Dx, Initial residual = 1.72381e-05, Final residual = 6.11969e-06, No Iterations 1
GAMG:  Solving for Dy, Initial residual = 4.07299e-05, Final residual = 1.13212e-05, No Iterations 1
ExecutionTime = 0.25 s  ClockTime = 0 s

Iteration: 83

GAMG:  Solving for Dx, Initial residual = 1.62366e-05, Final residual = 5.76054e-06, No Iterations 1
GAMG:  Solving for Dy, Initial residual = 3.83667e-05, Final residual = 1.06604e-05, No Iterations 1
ExecutionTime = 0.25 s  ClockTime = 0 s

Iteration: 84

GAMG:  Solving for Dx, Initial residual = 1.52944e-05, Final residual = 5.42293e-06, No Iterations 1
GAMG:  Solving for Dy, Initial residual = 3.61437e-05, Final residual = 1.00391e-05, No Iterations 1
ExecutionTime = 0.25 s  ClockTime = 0 s

Iteration: 85

GAMG:  Solving for Dx, Initial residual = 1.44081e-05, Final residual = 5.10556e-06, No Iterations 1
GAMG:  Solving for Dy, Initial residual = 3.40523e-05, Final residual = 9.45476e-06, No Iterations 1
ExecutionTime = 0.26 s  ClockTime = 0 s

Iteration: 86

GAMG:  Solving for Dx, Initial residual = 1.35741e-05, Final residual = 4.80716e-06, No Iterations 1
GAMG:  Solving for Dy, Initial residual = 3.20844e-05, Final residual = 8.90526e-06, No Iterations 1
ExecutionTime = 0.26 s  ClockTime = 0 s

Iteration: 87

GAMG:  Solving for Dx, Initial residual = 1.27895e-05, Final residual = 4.52658e-06, No Iterations 1
GAMG:  Solving for Dy, Initial residual = 3.02328e-05, Final residual = 8.38848e-06, No Iterations 1
ExecutionTime = 0.26 s  ClockTime = 0 s

Iteration: 88

GAMG:  Solving for Dx, Initial residual = 1.20511e-05, Final residual = 4.26273e-06, No Iterations 1
GAMG:  Solving for Dy, Initial residual = 2.84902e-05, Final residual = 7.90234e-06, No Iterations 1
ExecutionTime = 0.26 s  ClockTime = 0 s

Iteration: 89

GAMG:  Solving for Dx, Initial residual = 1.13562e-05, Final residual = 4.01458e-06, No Iterations 1
GAMG:  Solving for Dy, Initial residual = 2.68501e-05, Final residual = 7.44497e-06, No Iterations 1
ExecutionTime = 0.26 s  ClockTime = 0 s

Iteration: 90

GAMG:  Solving for Dx, Initial residual = 1.07022e-05, Final residual = 3.78119e-06, No Iterations 1
GAMG:  Solving for Dy, Initial residual = 2.53064e-05, Final residual = 7.01469e-06, No Iterations 1
ExecutionTime = 0.27 s  ClockTime = 0 s

Iteration: 91

GAMG:  Solving for Dx, Initial residual = 1.00865e-05, Final residual = 3.56164e-06, No Iterations 1
GAMG:  Solving for Dy, Initial residual = 2.38533e-05, Final residual = 6.6098e-06, No Iterations 1
ExecutionTime = 0.27 s  ClockTime = 0 s

Iteration: 92

GAMG:  Solving for Dx, Initial residual = 9.50696e-06, Final residual = 3.35512e-06, No Iterations 1
GAMG:  Solving for Dy, Initial residual = 2.24852e-05, Final residual = 6.22876e-06, No Iterations 1
ExecutionTime = 0.27 s  ClockTime = 0 s

Iteration: 93

GAMG:  Solving for Dx, Initial residual = 8.96134e-06, Final residual = 3.16081e-06, No Iterations 1
GAMG:  Solving for Dy, Initial residual = 2.11972e-05, Final residual = 5.87013e-06, No Iterations 1
ExecutionTime = 0.27 s  ClockTime = 0 s

Iteration: 94

GAMG:  Solving for Dx, Initial residual = 8.44762e-06, Final residual = 2.978e-06, No Iterations 1
GAMG:  Solving for Dy, Initial residual = 1.99844e-05, Final residual = 5.53259e-06, No Iterations 1
ExecutionTime = 0.27 s  ClockTime = 0 s

Iteration: 95

GAMG:  Solving for Dx, Initial residual = 7.9639e-06, Final residual = 2.80597e-06, No Iterations 1
GAMG:  Solving for Dy, Initial residual = 1.88424e-05, Final residual = 5.21525e-06, No Iterations 1
ExecutionTime = 0.28 s  ClockTime = 0 s

Iteration: 96

GAMG:  Solving for Dx, Initial residual = 7.50839e-06, Final residual = 2.64408e-06, No Iterations 1
GAMG:  Solving for Dy, Initial residual = 1.77668e-05, Final residual = 4.91671e-06, No Iterations 1
ExecutionTime = 0.28 s  ClockTime = 0 s

Iteration: 97

GAMG:  Solving for Dx, Initial residual = 7.07942e-06, Final residual = 2.49173e-06, No Iterations 1
GAMG:  Solving for Dy, Initial residual = 1.67538e-05, Final residual = 4.6356e-06, No Iterations 1
ExecutionTime = 0.28 s  ClockTime = 0 s

Iteration: 98

GAMG:  Solving for Dx, Initial residual = 6.6754e-06, Final residual = 2.34832e-06, No Iterations 1
GAMG:  Solving for Dy, Initial residual = 1.57997e-05, Final residual = 4.37087e-06, No Iterations 1
ExecutionTime = 0.28 s  ClockTime = 0 s

Iteration: 99

GAMG:  Solving for Dx, Initial residual = 6.29487e-06, Final residual = 2.21334e-06, No Iterations 1
GAMG:  Solving for Dy, Initial residual = 1.49009e-05, Final residual = 4.12154e-06, No Iterations 1
ExecutionTime = 0.28 s  ClockTime = 0 s

Iteration: 100

GAMG:  Solving for Dx, Initial residual = 5.93641e-06, Final residual = 2.08627e-06, No Iterations 1
GAMG:  Solving for Dy, Initial residual = 1.40542e-05, Final residual = 3.88669e-06, No Iterations 1
Max sigmaEq = 28845.6
ExecutionTime = 0.3 s  ClockTime = 0 s

Iteration: 101

GAMG:  Solving for Dx, Initial residual = 5.59873e-06, Final residual = 1.96664e-06, No Iterations 1
GAMG:  Solving for Dy, Initial residual = 1.32566e-05, Final residual = 3.66548e-06, No Iterations 1
ExecutionTime = 0.3 s  ClockTime = 0 s

Iteration: 102

GAMG:  Solving for Dx, Initial residual = 5.2806e-06, Final residual = 1.854e-06, No Iterations 1
GAMG:  Solving for Dy, Initial residual = 1.25055e-05, Final residual = 3.4571e-06, No Iterations 1
ExecutionTime = 0.3 s  ClockTime = 0 s

Iteration: 103

GAMG:  Solving for Dx, Initial residual = 4.98086e-06, Final residual = 1.74794e-06, No Iterations 1
GAMG:  Solving for Dy, Initial residual = 1.17977e-05, Final residual = 3.26079e-06, No Iterations 1
ExecutionTime = 0.3 s  ClockTime = 0 s

Iteration: 104

GAMG:  Solving for Dx, Initial residual = 4.69844e-06, Final residual = 1.64807e-06, No Iterations 1
GAMG:  Solving for Dy, Initial residual = 1.11307e-05, Final residual = 3.07584e-06, No Iterations 1
ExecutionTime = 0.31 s  ClockTime = 0 s

Iteration: 105

GAMG:  Solving for Dx, Initial residual = 4.4323e-06, Final residual = 1.55401e-06, No Iterations 1
GAMG:  Solving for Dy, Initial residual = 1.0502e-05, Final residual = 2.90156e-06, No Iterations 1
ExecutionTime = 0.31 s  ClockTime = 0 s

Iteration: 106

GAMG:  Solving for Dx, Initial residual = 4.18149e-06, Final residual = 1.46542e-06, No Iterations 1
GAMG:  Solving for Dy, Initial residual = 9.90947e-06, Final residual = 2.73733e-06, No Iterations 1
ExecutionTime = 0.31 s  ClockTime = 0 s

Iteration: 107

GAMG:  Solving for Dx, Initial residual = 3.94512e-06, Final residual = 1.38197e-06, No Iterations 1
GAMG:  Solving for Dy, Initial residual = 9.35091e-06, Final residual = 2.58256e-06, No Iterations 1
ExecutionTime = 0.32 s  ClockTime = 0 s

Iteration: 108

GAMG:  Solving for Dx, Initial residual = 3.72234e-06, Final residual = 1.30336e-06, No Iterations 1
GAMG:  Solving for Dy, Initial residual = 8.82435e-06, Final residual = 2.43668e-06, No Iterations 1
ExecutionTime = 0.32 s  ClockTime = 0 s

Iteration: 109

GAMG:  Solving for Dx, Initial residual = 3.51234e-06, Final residual = 1.22931e-06, No Iterations 1
GAMG:  Solving for Dy, Initial residual = 8.32793e-06, Final residual = 2.29919e-06, No Iterations 1
ExecutionTime = 0.33 s  ClockTime = 0 s

Iteration: 110

GAMG:  Solving for Dx, Initial residual = 3.31439e-06, Final residual = 1.15954e-06, No Iterations 1
GAMG:  Solving for Dy, Initial residual = 7.8599e-06, Final residual = 2.16958e-06, No Iterations 1
ExecutionTime = 0.33 s  ClockTime = 0 s

Iteration: 111

GAMG:  Solving for Dx, Initial residual = 3.12778e-06, Final residual = 1.09381e-06, No Iterations 1
GAMG:  Solving for Dy, Initial residual = 7.41859e-06, Final residual = 2.04739e-06, No Iterations 1
ExecutionTime = 0.33 s  ClockTime = 0 s

Iteration: 112

GAMG:  Solving for Dx, Initial residual = 2.95184e-06, Final residual = 1.03186e-06, No Iterations 1
GAMG:  Solving for Dy, Initial residual = 7.00245e-06, Final residual = 1.9322e-06, No Iterations 1
ExecutionTime = 0.33 s  ClockTime = 0 s

Iteration: 113

GAMG:  Solving for Dx, Initial residual = 2.78596e-06, Final residual = 9.73486e-07, No Iterations 1
GAMG:  Solving for Dy, Initial residual = 6.61003e-06, Final residual = 1.82359e-06, No Iterations 1
ExecutionTime = 0.33 s  ClockTime = 0 s

Iteration: 114

GAMG:  Solving for Dx, Initial residual = 2.62955e-06, Final residual = 9.18472e-07, No Iterations 1
GAMG:  Solving for Dy, Initial residual = 6.23994e-06, Final residual = 1.72118e-06, No Iterations 1
ExecutionTime = 0.33 s  ClockTime = 0 s

Iteration: 115

GAMG:  Solving for Dx, Initial residual = 2.48205e-06, Final residual = 8.66621e-07, No Iterations 1
GAMG:  Solving for Dy, Initial residual = 5.89089e-06, Final residual = 1.62462e-06, No Iterations 1
ExecutionTime = 0.34 s  ClockTime = 0 s

Iteration: 116

GAMG:  Solving for Dx, Initial residual = 2.34296e-06, Final residual = 8.17747e-07, No Iterations 1
GAMG:  Solving for Dy, Initial residual = 5.56165e-06, Final residual = 1.53355e-06, No Iterations 1
ExecutionTime = 0.34 s  ClockTime = 0 s

Iteration: 117

GAMG:  Solving for Dx, Initial residual = 2.21178e-06, Final residual = 7.71677e-07, No Iterations 1
GAMG:  Solving for Dy, Initial residual = 5.25109e-06, Final residual = 1.44767e-06, No Iterations 1
ExecutionTime = 0.34 s  ClockTime = 0 s

Iteration: 118

GAMG:  Solving for Dx, Initial residual = 2.08806e-06, Final residual = 7.28249e-07, No Iterations 1
GAMG:  Solving for Dy, Initial residual = 4.95812e-06, Final residual = 1.36667e-06, No Iterations 1
ExecutionTime = 0.34 s  ClockTime = 0 s

Iteration: 119

GAMG:  Solving for Dx, Initial residual = 1.97137e-06, Final residual = 6.87305e-07, No Iterations 1
GAMG:  Solving for Dy, Initial residual = 4.68174e-06, Final residual = 1.29027e-06, No Iterations 1
ExecutionTime = 0.34 s  ClockTime = 0 s

Iteration: 120

GAMG:  Solving for Dx, Initial residual = 1.8613e-06, Final residual = 6.48702e-07, No Iterations 1
GAMG:  Solving for Dy, Initial residual = 4.42098e-06, Final residual = 1.21821e-06, No Iterations 1
Max sigmaEq = 28856.9
ExecutionTime = 0.36 s  ClockTime = 0 s

Iteration: 121

GAMG:  Solving for Dx, Initial residual = 1.75746e-06, Final residual = 6.12301e-07, No Iterations 1
GAMG:  Solving for Dy, Initial residual = 4.17495e-06, Final residual = 1.15023e-06, No Iterations 1
ExecutionTime = 0.36 s  ClockTime = 0 s

Iteration: 122

GAMG:  Solving for Dx, Initial residual = 1.65949e-06, Final residual = 5.77976e-07, No Iterations 1
GAMG:  Solving for Dy, Initial residual = 3.94282e-06, Final residual = 1.0861e-06, No Iterations 1
ExecutionTime = 0.36 s  ClockTime = 0 s

Iteration: 123

GAMG:  Solving for Dx, Initial residual = 1.56707e-06, Final residual = 5.45605e-07, No Iterations 1
GAMG:  Solving for Dy, Initial residual = 3.72377e-06, Final residual = 1.0256e-06, No Iterations 1
ExecutionTime = 0.36 s  ClockTime = 0 s

Iteration: 124

GAMG:  Solving for Dx, Initial residual = 1.47986e-06, Final residual = 5.15076e-07, No Iterations 1
GAMG:  Solving for Dy, Initial residual = 3.51707e-06, Final residual = 9.6852e-07, No Iterations 1
ExecutionTime = 0.36 s  ClockTime = 0 s

Iteration: 125

GAMG:  Solving for Dx, Initial residual = 1.39758e-06, Final residual = 4.86283e-07, No Iterations 1
GAMG:  Solving for Dy, Initial residual = 3.32199e-06, Final residual = 9.14661e-07, No Iterations 1
ExecutionTime = 0.37 s  ClockTime = 0 s

Iteration: 126

GAMG:  Solving for Dx, Initial residual = 1.31993e-06, Final residual = 4.59123e-07, No Iterations 1
GAMG:  Solving for Dy, Initial residual = 3.13788e-06, Final residual = 8.63838e-07, No Iterations 1
ExecutionTime = 0.37 s  ClockTime = 0 s

Iteration: 127

GAMG:  Solving for Dx, Initial residual = 1.24666e-06, Final residual = 4.33504e-07, No Iterations 1
GAMG:  Solving for Dy, Initial residual = 2.9641e-06, Final residual = 8.15879e-07, No Iterations 1
ExecutionTime = 0.37 s  ClockTime = 0 s

Iteration: 128

GAMG:  Solving for Dx, Initial residual = 1.17751e-06, Final residual = 4.09335e-07, No Iterations 1
GAMG:  Solving for Dy, Initial residual = 2.80007e-06, Final residual = 7.70622e-07, No Iterations 1
ExecutionTime = 0.37 s  ClockTime = 0 s

Iteration: 129

GAMG:  Solving for Dx, Initial residual = 1.11224e-06, Final residual = 3.86534e-07, No Iterations 1
GAMG:  Solving for Dy, Initial residual = 2.64524e-06, Final residual = 7.27907e-07, No Iterations 1
ExecutionTime = 0.37 s  ClockTime = 0 s

Iteration: 130

GAMG:  Solving for Dx, Initial residual = 1.05064e-06, Final residual = 3.65021e-07, No Iterations 1
GAMG:  Solving for Dy, Initial residual = 2.4991e-06, Final residual = 6.87591e-07, No Iterations 1
ExecutionTime = 0.38 s  ClockTime = 0 s

Iteration: 131

GAMG:  Solving for Dx, Initial residual = 9.92496e-07, Final residual = 9.92496e-07, No Iterations 0
GAMG:  Solving for Dy, Initial residual = 2.36113e-06, Final residual = 6.49536e-07, No Iterations 1
ExecutionTime = 0.38 s  ClockTime = 0 s

Iteration: 132

GAMG:  Solving for Dx, Initial residual = 1.278e-06, Final residual = 4.27038e-07, No Iterations 1
GAMG:  Solving for Dy, Initial residual = 1.73047e-06, Final residual = 5.00967e-07, No Iterations 1
ExecutionTime = 0.38 s  ClockTime = 0 s

Iteration: 133

GAMG:  Solving for Dx, Initial residual = 1.02404e-06, Final residual = 3.59381e-07, No Iterations 1
GAMG:  Solving for Dy, Initial residual = 1.96167e-06, Final residual = 5.16088e-07, No Iterations 1
ExecutionTime = 0.38 s  ClockTime = 0 s

Iteration: 134

GAMG:  Solving for Dx, Initial residual = 9.17337e-07, Final residual = 9.17337e-07, No Iterations 0
GAMG:  Solving for Dy, Initial residual = 1.92015e-06, Final residual = 5.16723e-07, No Iterations 1
ExecutionTime = 0.38 s  ClockTime = 0 s

Iteration: 135

GAMG:  Solving for Dx, Initial residual = 1.13753e-06, Final residual = 3.8553e-07, No Iterations 1
GAMG:  Solving for Dy, Initial residual = 1.38211e-06, Final residual = 3.95774e-07, No Iterations 1
ExecutionTime = 0.38 s  ClockTime = 0 s

Iteration: 136

GAMG:  Solving for Dx, Initial residual = 9.11341e-07, Final residual = 9.11341e-07, No Iterations 0
GAMG:  Solving for Dy, Initial residual = 1.64656e-06, Final residual = 4.31176e-07, No Iterations 1
ExecutionTime = 0.39 s  ClockTime = 0 s

Iteration: 137

GAMG:  Solving for Dx, Initial residual = 1.09002e-06, Final residual = 3.7266e-07, No Iterations 1
GAMG:  Solving for Dy, Initial residual = 1.15592e-06, Final residual = 3.29223e-07, No Iterations 1
ExecutionTime = 0.39 s  ClockTime = 0 s

Iteration: 138

GAMG:  Solving for Dx, Initial residual = 8.67902e-07, Final residual = 8.67902e-07, No Iterations 0
GAMG:  Solving for Dy, Initial residual = 1.46243e-06, Final residual = 3.79731e-07, No Iterations 1
ExecutionTime = 0.39 s  ClockTime = 0 s

Iteration: 139

GAMG:  Solving for Dx, Initial residual = 1.02244e-06, Final residual = 3.50922e-07, No Iterations 1
GAMG:  Solving for Dy, Initial residual = 1.0158e-06, Final residual = 2.87764e-07, No Iterations 1
ExecutionTime = 0.39 s  ClockTime = 0 s

Iteration: 140

GAMG:  Solving for Dx, Initial residual = 8.1151e-07, Final residual = 8.1151e-07, No Iterations 0
GAMG:  Solving for Dy, Initial residual = 1.32682e-06, Final residual = 3.46137e-07, No Iterations 1
Max sigmaEq = 28860
ExecutionTime = 0.4 s  ClockTime = 0 s

Iteration: 141

GAMG:  Solving for Dx, Initial residual = 9.51132e-07, Final residual = 9.51132e-07, No Iterations 0
GAMG:  Solving for Dy, Initial residual = 9.18915e-07, Final residual = 9.18915e-07, No Iterations 0
ExecutionTime = 0.41 s  ClockTime = 0 s

Iteration: 142

GAMG:  Solving for Dx, Initial residual = 9.96172e-07, Final residual = 9.96172e-07, No Iterations 0
GAMG:  Solving for Dy, Initial residual = 1.10376e-06, Final residual = 2.867e-07, No Iterations 1
ExecutionTime = 0.41 s  ClockTime = 0 s

Iteration: 143

GAMG:  Solving for Dx, Initial residual = 1.10754e-06, Final residual = 3.67798e-07, No Iterations 1
GAMG:  Solving for Dy, Initial residual = 7.31058e-07, Final residual = 7.31058e-07, No Iterations 0
ExecutionTime = 0.41 s  ClockTime = 0 s

Iteration: 144

GAMG:  Solving for Dx, Initial residual = 7.60058e-07, Final residual = 7.60058e-07, No Iterations 0
GAMG:  Solving for Dy, Initial residual = 1.40488e-06, Final residual = 3.57208e-07, No Iterations 1
ExecutionTime = 0.41 s  ClockTime = 0 s

Iteration: 145

GAMG:  Solving for Dx, Initial residual = 8.70994e-07, Final residual = 8.70994e-07, No Iterations 0
GAMG:  Solving for Dy, Initial residual = 8.83349e-07, Final residual = 8.83349e-07, No Iterations 0
ExecutionTime = 0.41 s  ClockTime = 0 s

Iteration: 146

GAMG:  Solving for Dx, Initial residual = 9.03708e-07, Final residual = 9.03708e-07, No Iterations 0
GAMG:  Solving for Dy, Initial residual = 1.00526e-06, Final residual = 2.73835e-07, No Iterations 1
ExecutionTime = 0.41 s  ClockTime = 0 s

Iteration: 147

GAMG:  Solving for Dx, Initial residual = 1.00164e-06, Final residual = 3.34818e-07, No Iterations 1
GAMG:  Solving for Dy, Initial residual = 6.73513e-07, Final residual = 6.73513e-07, No Iterations 0
ExecutionTime = 0.41 s  ClockTime = 0 s

Iteration: 148

GAMG:  Solving for Dx, Initial residual = 6.99498e-07, Final residual = 6.99498e-07, No Iterations 0
GAMG:  Solving for Dy, Initial residual = 1.28047e-06, Final residual = 3.3738e-07, No Iterations 1
ExecutionTime = 0.42 s  ClockTime = 0 s

Iteration: 149

GAMG:  Solving for Dx, Initial residual = 7.99959e-07, Final residual = 7.99959e-07, No Iterations 0
GAMG:  Solving for Dy, Initial residual = 8.10498e-07, Final residual = 8.10498e-07, No Iterations 0
ExecutionTime = 0.42 s  ClockTime = 0 s

Iteration: 150

GAMG:  Solving for Dx, Initial residual = 8.2699e-07, Final residual = 8.2699e-07, No Iterations 0
GAMG:  Solving for Dy, Initial residual = 9.11451e-07, Final residual = 9.11451e-07, No Iterations 0
ExecutionTime = 0.42 s  ClockTime = 0 s

Iteration: 151

GAMG:  Solving for Dx, Initial residual = 8.48459e-07, Final residual = 8.48459e-07, No Iterations 0
GAMG:  Solving for Dy, Initial residual = 9.95369e-07, Final residual = 9.95369e-07, No Iterations 0
ExecutionTime = 0.42 s  ClockTime = 0 s

Iteration: 152

GAMG:  Solving for Dx, Initial residual = 8.66215e-07, Final residual = 8.66215e-07, No Iterations 0
GAMG:  Solving for Dy, Initial residual = 1.06101e-06, Final residual = 2.7875e-07, No Iterations 1
ExecutionTime = 0.42 s  ClockTime = 0 s

Iteration: 153

GAMG:  Solving for Dx, Initial residual = 9.50347e-07, Final residual = 9.50347e-07, No Iterations 0
GAMG:  Solving for Dy, Initial residual = 6.437e-07, Final residual = 6.437e-07, No Iterations 0
ExecutionTime = 0.42 s  ClockTime = 0 s

Iteration: 154

GAMG:  Solving for Dx, Initial residual = 9.68419e-07, Final residual = 9.68419e-07, No Iterations 0
GAMG:  Solving for Dy, Initial residual = 6.87984e-07, Final residual = 6.87984e-07, No Iterations 0
ExecutionTime = 0.42 s  ClockTime = 0 s

Iteration: 155

GAMG:  Solving for Dx, Initial residual = 9.82737e-07, Final residual = 9.82737e-07, No Iterations 0
GAMG:  Solving for Dy, Initial residual = 7.24601e-07, Final residual = 7.24601e-07, No Iterations 0
ExecutionTime = 0.43 s  ClockTime = 0 s

Iteration: 156

GAMG:  Solving for Dx, Initial residual = 9.94356e-07, Final residual = 9.94356e-07, No Iterations 0
GAMG:  Solving for Dy, Initial residual = 7.55201e-07, Final residual = 7.55201e-07, No Iterations 0
ExecutionTime = 0.43 s  ClockTime = 0 s

Iteration: 157

GAMG:  Solving for Dx, Initial residual = 1.00398e-06, Final residual = 3.26034e-07, No Iterations 1
GAMG:  Solving for Dy, Initial residual = 7.81142e-07, Final residual = 7.81142e-07, No Iterations 0
ExecutionTime = 0.43 s  ClockTime = 0 s

Iteration: 158

GAMG:  Solving for Dx, Initial residual = 6.6382e-07, Final residual = 6.6382e-07, No Iterations 0
GAMG:  Solving for Dy, Initial residual = 1.31846e-06, Final residual = 3.45887e-07, No Iterations 1
ExecutionTime = 0.43 s  ClockTime = 0 s

Iteration: 159

GAMG:  Solving for Dx, Initial residual = 7.47773e-07, Final residual = 7.47773e-07, No Iterations 0
GAMG:  Solving for Dy, Initial residual = 7.89105e-07, Final residual = 7.89105e-07, No Iterations 0
ExecutionTime = 0.43 s  ClockTime = 0 s

Iteration: 160

GAMG:  Solving for Dx, Initial residual = 7.64848e-07, Final residual = 7.64848e-07, No Iterations 0
GAMG:  Solving for Dy, Initial residual = 8.4865e-07, Final residual = 8.4865e-07, No Iterations 0
Max sigmaEq = 28860.4
ExecutionTime = 0.46 s  ClockTime = 0 s

Iteration: 161

GAMG:  Solving for Dx, Initial residual = 7.78239e-07, Final residual = 7.78239e-07, No Iterations 0
GAMG:  Solving for Dy, Initial residual = 8.98116e-07, Final residual = 8.98116e-07, No Iterations 0
ExecutionTime = 0.46 s  ClockTime = 0 s

Iteration: 162

GAMG:  Solving for Dx, Initial residual = 7.8912e-07, Final residual = 7.8912e-07, No Iterations 0
GAMG:  Solving for Dy, Initial residual = 9.37506e-07, Final residual = 9.37506e-07, No Iterations 0
ExecutionTime = 0.46 s  ClockTime = 0 s

Iteration: 163

GAMG:  Solving for Dx, Initial residual = 7.97916e-07, Final residual = 7.97916e-07, No Iterations 0
GAMG:  Solving for Dy, Initial residual = 9.68422e-07, Final residual = 9.68422e-07, No Iterations 0
ExecutionTime = 0.46 s  ClockTime = 0 s

Iteration: 164

GAMG:  Solving for Dx, Initial residual = 8.05158e-07, Final residual = 8.05158e-07, No Iterations 0
GAMG:  Solving for Dy, Initial residual = 9.92931e-07, Final residual = 9.92931e-07, No Iterations 0
ExecutionTime = 0.46 s  ClockTime = 0 s

Iteration: 165

GAMG:  Solving for Dx, Initial residual = 8.11211e-07, Final residual = 8.11211e-07, No Iterations 0
GAMG:  Solving for Dy, Initial residual = 1.01266e-06, Final residual = 2.6933e-07, No Iterations 1
ExecutionTime = 0.46 s  ClockTime = 0 s

Iteration: 166

GAMG:  Solving for Dx, Initial residual = 8.84881e-07, Final residual = 8.84881e-07, No Iterations 0
GAMG:  Solving for Dy, Initial residual = 6.01561e-07, Final residual = 6.01561e-07, No Iterations 0
ExecutionTime = 0.46 s  ClockTime = 0 s

Iteration: 167

GAMG:  Solving for Dx, Initial residual = 8.94804e-07, Final residual = 8.94804e-07, No Iterations 0
GAMG:  Solving for Dy, Initial residual = 6.21886e-07, Final residual = 6.21886e-07, No Iterations 0
ExecutionTime = 0.47 s  ClockTime = 0 s

Iteration: 168

GAMG:  Solving for Dx, Initial residual = 9.02387e-07, Final residual = 9.02387e-07, No Iterations 0
GAMG:  Solving for Dy, Initial residual = 6.39334e-07, Final residual = 6.39334e-07, No Iterations 0
ExecutionTime = 0.47 s  ClockTime = 0 s

Iteration: 169

GAMG:  Solving for Dx, Initial residual = 9.08363e-07, Final residual = 9.08363e-07, No Iterations 0
GAMG:  Solving for Dy, Initial residual = 6.53854e-07, Final residual = 6.53854e-07, No Iterations 0
ExecutionTime = 0.47 s  ClockTime = 0 s

Iteration: 170

GAMG:  Solving for Dx, Initial residual = 9.13189e-07, Final residual = 9.13189e-07, No Iterations 0
GAMG:  Solving for Dy, Initial residual = 6.66e-07, Final residual = 6.66e-07, No Iterations 0
ExecutionTime = 0.47 s  ClockTime = 0 s

Iteration: 171

GAMG:  Solving for Dx, Initial residual = 9.17162e-07, Final residual = 9.17162e-07, No Iterations 0
GAMG:  Solving for Dy, Initial residual = 6.76266e-07, Final residual = 6.76266e-07, No Iterations 0
ExecutionTime = 0.47 s  ClockTime = 0 s

Iteration: 172

GAMG:  Solving for Dx, Initial residual = 9.20491e-07, Final residual = 9.20491e-07, No Iterations 0
GAMG:  Solving for Dy, Initial residual = 6.85026e-07, Final residual = 6.85026e-07, No Iterations 0
ExecutionTime = 0.47 s  ClockTime = 0 s

Iteration: 173

GAMG:  Solving for Dx, Initial residual = 9.23325e-07, Final residual = 9.23325e-07, No Iterations 0
GAMG:  Solving for Dy, Initial residual = 6.92559e-07, Final residual = 6.92559e-07, No Iterations 0
ExecutionTime = 0.47 s  ClockTime = 0 s

Iteration: 174

GAMG:  Solving for Dx, Initial residual = 9.25752e-07, Final residual = 9.25752e-07, No Iterations 0
GAMG:  Solving for Dy, Initial residual = 6.9908e-07, Final residual = 6.9908e-07, No Iterations 0
ExecutionTime = 0.48 s  ClockTime = 0 s

Iteration: 175

GAMG:  Solving for Dx, Initial residual = 9.27844e-07, Final residual = 9.27844e-07, No Iterations 0
GAMG:  Solving for Dy, Initial residual = 7.04752e-07, Final residual = 7.04752e-07, No Iterations 0
ExecutionTime = 0.48 s  ClockTime = 0 s

Iteration: 176

GAMG:  Solving for Dx, Initial residual = 9.29658e-07, Final residual = 9.29658e-07, No Iterations 0
GAMG:  Solving for Dy, Initial residual = 7.09704e-07, Final residual = 7.09704e-07, No Iterations 0
ExecutionTime = 0.48 s  ClockTime = 0 s

Iteration: 177

GAMG:  Solving for Dx, Initial residual = 9.31237e-07, Final residual = 9.31237e-07, No Iterations 0
GAMG:  Solving for Dy, Initial residual = 7.14042e-07, Final residual = 7.14042e-07, No Iterations 0
ExecutionTime = 0.48 s  ClockTime = 0 s

Iteration: 178

GAMG:  Solving for Dx, Initial residual = 9.32618e-07, Final residual = 9.32618e-07, No Iterations 0
GAMG:  Solving for Dy, Initial residual = 7.17849e-07, Final residual = 7.17849e-07, No Iterations 0
ExecutionTime = 0.48 s  ClockTime = 0 s

Iteration: 179

GAMG:  Solving for Dx, Initial residual = 9.33829e-07, Final residual = 9.33829e-07, No Iterations 0
GAMG:  Solving for Dy, Initial residual = 7.21196e-07, Final residual = 7.21196e-07, No Iterations 0
ExecutionTime = 0.48 s  ClockTime = 0 s

Iteration: 180

GAMG:  Solving for Dx, Initial residual = 9.34892e-07, Final residual = 9.34892e-07, No Iterations 0
GAMG:  Solving for Dy, Initial residual = 7.24143e-07, Final residual = 7.24143e-07, No Iterations 0
Max sigmaEq = 28860.4
ExecutionTime = 0.5 s  ClockTime = 0 s

Iteration: 181

GAMG:  Solving for Dx, Initial residual = 9.35827e-07, Final residual = 9.35827e-07, No Iterations 0
GAMG:  Solving for Dy, Initial residual = 7.26739e-07, Final residual = 7.26739e-07, No Iterations 0
ExecutionTime = 0.5 s  ClockTime = 0 s

Iteration: 182

GAMG:  Solving for Dx, Initial residual = 9.36651e-07, Final residual = 9.36651e-07, No Iterations 0
GAMG:  Solving for Dy, Initial residual = 7.29027e-07, Final residual = 7.29027e-07, No Iterations 0
ExecutionTime = 0.5 s  ClockTime = 0 s

Iteration: 183

GAMG:  Solving for Dx, Initial residual = 9.37376e-07, Final residual = 9.37376e-07, No Iterations 0
GAMG:  Solving for Dy, Initial residual = 7.31046e-07, Final residual = 7.31046e-07, No Iterations 0
ExecutionTime = 0.5 s  ClockTime = 0 s

Iteration: 184

GAMG:  Solving for Dx, Initial residual = 9.38016e-07, Final residual = 9.38016e-07, No Iterations 0
GAMG:  Solving for Dy, Initial residual = 7.32828e-07, Final residual = 7.32828e-07, No Iterations 0
ExecutionTime = 0.5 s  ClockTime = 0 s

Iteration: 185

GAMG:  Solving for Dx, Initial residual = 9.38581e-07, Final residual = 9.38581e-07, No Iterations 0
GAMG:  Solving for Dy, Initial residual = 7.344e-07, Final residual = 7.344e-07, No Iterations 0
ExecutionTime = 0.5 s  ClockTime = 0 s

Iteration: 186

GAMG:  Solving for Dx, Initial residual = 9.39079e-07, Final residual = 9.39079e-07, No Iterations 0
GAMG:  Solving for Dy, Initial residual = 7.35788e-07, Final residual = 7.35788e-07, No Iterations 0
ExecutionTime = 0.5 s  ClockTime = 0 s

Iteration: 187

GAMG:  Solving for Dx, Initial residual = 9.39519e-07, Final residual = 9.39519e-07, No Iterations 0
GAMG:  Solving for Dy, Initial residual = 7.37014e-07, Final residual = 7.37014e-07, No Iterations 0
ExecutionTime = 0.51 s  ClockTime = 0 s

Iteration: 188

GAMG:  Solving for Dx, Initial residual = 9.39908e-07, Final residual = 9.39908e-07, No Iterations 0
GAMG:  Solving for Dy, Initial residual = 7.38097e-07, Final residual = 7.38097e-07, No Iterations 0
ExecutionTime = 0.51 s  ClockTime = 0 s

Iteration: 189

GAMG:  Solving for Dx, Initial residual = 9.4025e-07, Final residual = 9.4025e-07, No Iterations 0
GAMG:  Solving for Dy, Initial residual = 7.39052e-07, Final residual = 7.39052e-07, No Iterations 0
ExecutionTime = 0.51 s  ClockTime = 0 s

Iteration: 190

GAMG:  Solving for Dx, Initial residual = 9.40553e-07, Final residual = 9.40553e-07, No Iterations 0
GAMG:  Solving for Dy, Initial residual = 7.39897e-07, Final residual = 7.39897e-07, No Iterations 0
ExecutionTime = 0.51 s  ClockTime = 0 s

Iteration: 191

GAMG:  Solving for Dx, Initial residual = 9.40821e-07, Final residual = 9.40821e-07, No Iterations 0
GAMG:  Solving for Dy, Initial residual = 7.40642e-07, Final residual = 7.40642e-07, No Iterations 0
ExecutionTime = 0.51 s  ClockTime = 0 s

Iteration: 192

GAMG:  Solving for Dx, Initial residual = 9.41057e-07, Final residual = 9.41057e-07, No Iterations 0
GAMG:  Solving for Dy, Initial residual = 7.41301e-07, Final residual = 7.41301e-07, No Iterations 0
ExecutionTime = 0.51 s  ClockTime = 0 s

Iteration: 193

GAMG:  Solving for Dx, Initial residual = 9.41266e-07, Final residual = 9.41266e-07, No Iterations 0
GAMG:  Solving for Dy, Initial residual = 7.41883e-07, Final residual = 7.41883e-07, No Iterations 0
ExecutionTime = 0.51 s  ClockTime = 0 s

Iteration: 194

GAMG:  Solving for Dx, Initial residual = 9.4145e-07, Final residual = 9.4145e-07, No Iterations 0
GAMG:  Solving for Dy, Initial residual = 7.42397e-07, Final residual = 7.42397e-07, No Iterations 0
ExecutionTime = 0.51 s  ClockTime = 0 s

Iteration: 195

GAMG:  Solving for Dx, Initial residual = 9.41613e-07, Final residual = 9.41613e-07, No Iterations 0
GAMG:  Solving for Dy, Initial residual = 7.4285e-07, Final residual = 7.4285e-07, No Iterations 0
ExecutionTime = 0.52 s  ClockTime = 0 s

Iteration: 196

GAMG:  Solving for Dx, Initial residual = 9.41756e-07, Final residual = 9.41756e-07, No Iterations 0
GAMG:  Solving for Dy, Initial residual = 7.43251e-07, Final residual = 7.43251e-07, No Iterations 0
ExecutionTime = 0.52 s  ClockTime = 0 s

Iteration: 197

GAMG:  Solving for Dx, Initial residual = 9.41883e-07, Final residual = 9.41883e-07, No Iterations 0
GAMG:  Solving for Dy, Initial residual = 7.43606e-07, Final residual = 7.43606e-07, No Iterations 0
ExecutionTime = 0.52 s  ClockTime = 0 s

Iteration: 198

GAMG:  Solving for Dx, Initial residual = 9.41996e-07, Final residual = 9.41996e-07, No Iterations 0
GAMG:  Solving for Dy, Initial residual = 7.43918e-07, Final residual = 7.43918e-07, No Iterations 0
ExecutionTime = 0.52 s  ClockTime = 0 s

Iteration: 199

GAMG:  Solving for Dx, Initial residual = 9.42095e-07, Final residual = 9.42095e-07, No Iterations 0
GAMG:  Solving for Dy, Initial residual = 7.44195e-07, Final residual = 7.44195e-07, No Iterations 0
ExecutionTime = 0.52 s  ClockTime = 0 s

Iteration: 200

GAMG:  Solving for Dx, Initial residual = 9.42182e-07, Final residual = 9.42182e-07, No Iterations 0
GAMG:  Solving for Dy, Initial residual = 7.44439e-07, Final residual = 7.44439e-07, No Iterations 0
Max sigmaEq = 28860.4
ExecutionTime = 0.54 s  ClockTime = 0 s

Iteration: 201

GAMG:  Solving for Dx, Initial residual = 9.42259e-07, Final residual = 9.42259e-07, No Iterations 0
GAMG:  Solving for Dy, Initial residual = 7.44654e-07, Final residual = 7.44654e-07, No Iterations 0
ExecutionTime = 0.54 s  ClockTime = 0 s

Iteration: 202

GAMG:  Solving for Dx, Initial residual = 9.42328e-07, Final residual = 9.42328e-07, No Iterations 0
GAMG:  Solving for Dy, Initial residual = 7.44845e-07, Final residual = 7.44845e-07, No Iterations 0
ExecutionTime = 0.54 s  ClockTime = 0 s

Iteration: 203

GAMG:  Solving for Dx, Initial residual = 9.42388e-07, Final residual = 9.42388e-07, No Iterations 0
GAMG:  Solving for Dy, Initial residual = 7.45013e-07, Final residual = 7.45013e-07, No Iterations 0
ExecutionTime = 0.54 s  ClockTime = 0 s

Iteration: 204

GAMG:  Solving for Dx, Initial residual = 9.42441e-07, Final residual = 9.42441e-07, No Iterations 0
GAMG:  Solving for Dy, Initial residual = 7.45162e-07, Final residual = 7.45162e-07, No Iterations 0
ExecutionTime = 0.54 s  ClockTime = 0 s

Iteration: 205

GAMG:  Solving for Dx, Initial residual = 9.42488e-07, Final residual = 9.42488e-07, No Iterations 0
GAMG:  Solving for Dy, Initial residual = 7.45293e-07, Final residual = 7.45293e-07, No Iterations 0
ExecutionTime = 0.55 s  ClockTime = 0 s

Iteration: 206

GAMG:  Solving for Dx, Initial residual = 9.4253e-07, Final residual = 9.4253e-07, No Iterations 0
GAMG:  Solving for Dy, Initial residual = 7.45409e-07, Final residual = 7.45409e-07, No Iterations 0
ExecutionTime = 0.55 s  ClockTime = 0 s

Iteration: 207

GAMG:  Solving for Dx, Initial residual = 9.42567e-07, Final residual = 9.42567e-07, No Iterations 0
GAMG:  Solving for Dy, Initial residual = 7.45511e-07, Final residual = 7.45511e-07, No Iterations 0
ExecutionTime = 0.55 s  ClockTime = 0 s

Iteration: 208

GAMG:  Solving for Dx, Initial residual = 9.42599e-07, Final residual = 9.42599e-07, No Iterations 0
GAMG:  Solving for Dy, Initial residual = 7.45602e-07, Final residual = 7.45602e-07, No Iterations 0
ExecutionTime = 0.55 s  ClockTime = 0 s

Iteration: 209

GAMG:  Solving for Dx, Initial residual = 9.42628e-07, Final residual = 9.42628e-07, No Iterations 0
GAMG:  Solving for Dy, Initial residual = 7.45682e-07, Final residual = 7.45682e-07, No Iterations 0
ExecutionTime = 0.55 s  ClockTime = 0 s

Iteration: 210

GAMG:  Solving for Dx, Initial residual = 9.42653e-07, Final residual = 9.42653e-07, No Iterations 0
GAMG:  Solving for Dy, Initial residual = 7.45752e-07, Final residual = 7.45752e-07, No Iterations 0
ExecutionTime = 0.55 s  ClockTime = 0 s

Iteration: 211

GAMG:  Solving for Dx, Initial residual = 9.42676e-07, Final residual = 9.42676e-07, No Iterations 0
GAMG:  Solving for Dy, Initial residual = 7.45815e-07, Final residual = 7.45815e-07, No Iterations 0
ExecutionTime = 0.56 s  ClockTime = 0 s

Iteration: 212

GAMG:  Solving for Dx, Initial residual = 9.42695e-07, Final residual = 9.42695e-07, No Iterations 0
GAMG:  Solving for Dy, Initial residual = 7.4587e-07, Final residual = 7.4587e-07, No Iterations 0
ExecutionTime = 0.56 s  ClockTime = 0 s

Iteration: 213

GAMG:  Solving for Dx, Initial residual = 9.42713e-07, Final residual = 9.42713e-07, No Iterations 0
GAMG:  Solving for Dy, Initial residual = 7.45918e-07, Final residual = 7.45918e-07, No Iterations 0
ExecutionTime = 0.56 s  ClockTime = 0 s

Iteration: 214

GAMG:  Solving for Dx, Initial residual = 9.42728e-07, Final residual = 9.42728e-07, No Iterations 0
GAMG:  Solving for Dy, Initial residual = 7.45961e-07, Final residual = 7.45961e-07, No Iterations 0
ExecutionTime = 0.56 s  ClockTime = 0 s

Iteration: 215

GAMG:  Solving for Dx, Initial residual = 9.42742e-07, Final residual = 9.42742e-07, No Iterations 0
GAMG:  Solving for Dy, Initial residual = 7.45999e-07, Final residual = 7.45999e-07, No Iterations 0
ExecutionTime = 0.56 s  ClockTime = 0 s

Iteration: 216

GAMG:  Solving for Dx, Initial residual = 9.42754e-07, Final residual = 9.42754e-07, No Iterations 0
GAMG:  Solving for Dy, Initial residual = 7.46033e-07, Final residual = 7.46033e-07, No Iterations 0
ExecutionTime = 0.56 s  ClockTime = 0 s

Iteration: 217

GAMG:  Solving for Dx, Initial residual = 9.42764e-07, Final residual = 9.42764e-07, No Iterations 0
GAMG:  Solving for Dy, Initial residual = 7.46062e-07, Final residual = 7.46062e-07, No Iterations 0
ExecutionTime = 0.56 s  ClockTime = 0 s

Iteration: 218

GAMG:  Solving for Dx, Initial residual = 9.42774e-07, Final residual = 9.42774e-07, No Iterations 0
GAMG:  Solving for Dy, Initial residual = 7.46089e-07, Final residual = 7.46089e-07, No Iterations 0
ExecutionTime = 0.56 s  ClockTime = 0 s

Iteration: 219

GAMG:  Solving for Dx, Initial residual = 9.42782e-07, Final residual = 9.42782e-07, No Iterations 0
GAMG:  Solving for Dy, Initial residual = 7.46112e-07, Final residual = 7.46112e-07, No Iterations 0
ExecutionTime = 0.57 s  ClockTime = 0 s

Iteration: 220

GAMG:  Solving for Dx, Initial residual = 9.42789e-07, Final residual = 9.42789e-07, No Iterations 0
GAMG:  Solving for Dy, Initial residual = 7.46132e-07, Final residual = 7.46132e-07, No Iterations 0
Max sigmaEq = 28860.4
ExecutionTime = 0.58 s  ClockTime = 0 s

Iteration: 221

GAMG:  Solving for Dx, Initial residual = 9.42796e-07, Final residual = 9.42796e-07, No Iterations 0
GAMG:  Solving for Dy, Initial residual = 7.4615e-07, Final residual = 7.4615e-07, No Iterations 0
ExecutionTime = 0.58 s  ClockTime = 0 s

Iteration: 222

GAMG:  Solving for Dx, Initial residual = 9.42802e-07, Final residual = 9.42802e-07, No Iterations 0
GAMG:  Solving for Dy, Initial residual = 7.46166e-07, Final residual = 7.46166e-07, No Iterations 0
ExecutionTime = 0.58 s  ClockTime = 0 s

Iteration: 223

GAMG:  Solving for Dx, Initial residual = 9.42807e-07, Final residual = 9.42807e-07, No Iterations 0
GAMG:  Solving for Dy, Initial residual = 7.4618e-07, Final residual = 7.4618e-07, No Iterations 0
ExecutionTime = 0.59 s  ClockTime = 0 s

Iteration: 224

GAMG:  Solving for Dx, Initial residual = 9.42811e-07, Final residual = 9.42811e-07, No Iterations 0
GAMG:  Solving for Dy, Initial residual = 7.46193e-07, Final residual = 7.46193e-07, No Iterations 0
ExecutionTime = 0.59 s  ClockTime = 0 s

Iteration: 225

GAMG:  Solving for Dx, Initial residual = 9.42815e-07, Final residual = 9.42815e-07, No Iterations 0
GAMG:  Solving for Dy, Initial residual = 7.46204e-07, Final residual = 7.46204e-07, No Iterations 0
ExecutionTime = 0.59 s  ClockTime = 0 s

Iteration: 226

GAMG:  Solving for Dx, Initial residual = 9.42819e-07, Final residual = 9.42819e-07, No Iterations 0
GAMG:  Solving for Dy, Initial residual = 7.46213e-07, Final residual = 7.46213e-07, No Iterations 0
ExecutionTime = 0.59 s  ClockTime = 0 s

Iteration: 227

GAMG:  Solving for Dx, Initial residual = 9.42822e-07, Final residual = 9.42822e-07, No Iterations 0
GAMG:  Solving for Dy, Initial residual = 7.46222e-07, Final residual = 7.46222e-07, No Iterations 0
ExecutionTime = 0.59 s  ClockTime = 0 s

Iteration: 228

GAMG:  Solving for Dx, Initial residual = 9.42824e-07, Final residual = 9.42824e-07, No Iterations 0
GAMG:  Solving for Dy, Initial residual = 7.46229e-07, Final residual = 7.46229e-07, No Iterations 0
ExecutionTime = 0.59 s  ClockTime = 0 s

Iteration: 229

GAMG:  Solving for Dx, Initial residual = 9.42827e-07, Final residual = 9.42827e-07, No Iterations 0
GAMG:  Solving for Dy, Initial residual = 7.46236e-07, Final residual = 7.46236e-07, No Iterations 0
ExecutionTime = 0.59 s  ClockTime = 0 s

Iteration: 230

GAMG:  Solving for Dx, Initial residual = 9.42829e-07, Final residual = 9.42829e-07, No Iterations 0
GAMG:  Solving for Dy, Initial residual = 7.46242e-07, Final residual = 7.46242e-07, No Iterations 0
ExecutionTime = 0.6 s  ClockTime = 0 s

Iteration: 231

GAMG:  Solving for Dx, Initial residual = 9.42831e-07, Final residual = 9.42831e-07, No Iterations 0
GAMG:  Solving for Dy, Initial residual = 7.46247e-07, Final residual = 7.46247e-07, No Iterations 0
ExecutionTime = 0.6 s  ClockTime = 0 s

Iteration: 232

GAMG:  Solving for Dx, Initial residual = 9.42832e-07, Final residual = 9.42832e-07, No Iterations 0
GAMG:  Solving for Dy, Initial residual = 7.46252e-07, Final residual = 7.46252e-07, No Iterations 0
ExecutionTime = 0.6 s  ClockTime = 0 s

Iteration: 233

GAMG:  Solving for Dx, Initial residual = 9.42834e-07, Final residual = 9.42834e-07, No Iterations 0
GAMG:  Solving for Dy, Initial residual = 7.46256e-07, Final residual = 7.46256e-07, No Iterations 0
ExecutionTime = 0.6 s  ClockTime = 0 s

Iteration: 234

GAMG:  Solving for Dx, Initial residual = 9.42835e-07, Final residual = 9.42835e-07, No Iterations 0
GAMG:  Solving for Dy, Initial residual = 7.4626e-07, Final residual = 7.4626e-07, No Iterations 0
ExecutionTime = 0.6 s  ClockTime = 0 s

Iteration: 235

GAMG:  Solving for Dx, Initial residual = 9.42836e-07, Final residual = 9.42836e-07, No Iterations 0
GAMG:  Solving for Dy, Initial residual = 7.46263e-07, Final residual = 7.46263e-07, No Iterations 0
ExecutionTime = 0.6 s  ClockTime = 0 s

Iteration: 236

GAMG:  Solving for Dx, Initial residual = 9.42837e-07, Final residual = 9.42837e-07, No Iterations 0
GAMG:  Solving for Dy, Initial residual = 7.46266e-07, Final residual = 7.46266e-07, No Iterations 0
ExecutionTime = 0.6 s  ClockTime = 0 s

Iteration: 237

GAMG:  Solving for Dx, Initial residual = 9.42838e-07, Final residual = 9.42838e-07, No Iterations 0
GAMG:  Solving for Dy, Initial residual = 7.46268e-07, Final residual = 7.46268e-07, No Iterations 0
ExecutionTime = 0.6 s  ClockTime = 1 s

Iteration: 238

GAMG:  Solving for Dx, Initial residual = 9.42839e-07, Final residual = 9.42839e-07, No Iterations 0
GAMG:  Solving for Dy, Initial residual = 7.4627e-07, Final residual = 7.4627e-07, No Iterations 0
ExecutionTime = 0.61 s  ClockTime = 1 s

Iteration: 239

GAMG:  Solving for Dx, Initial residual = 9.4284e-07, Final residual = 9.4284e-07, No Iterations 0
GAMG:  Solving for Dy, Initial residual = 7.46272e-07, Final residual = 7.46272e-07, No Iterations 0
ExecutionTime = 0.61 s  ClockTime = 1 s

Iteration: 240

GAMG:  Solving for Dx, Initial residual = 9.4284e-07, Final residual = 9.4284e-07, No Iterations 0
GAMG:  Solving for Dy, Initial residual = 7.46274e-07, Final residual = 7.46274e-07, No Iterations 0
Max sigmaEq = 28860.4
ExecutionTime = 0.62 s  ClockTime = 1 s

Iteration: 241

GAMG:  Solving for Dx, Initial residual = 9.42841e-07, Final residual = 9.42841e-07, No Iterations 0
GAMG:  Solving for Dy, Initial residual = 7.46275e-07, Final residual = 7.46275e-07, No Iterations 0
ExecutionTime = 0.62 s  ClockTime = 1 s

Iteration: 242

GAMG:  Solving for Dx, Initial residual = 9.42841e-07, Final residual = 9.42841e-07, No Iterations 0
GAMG:  Solving for Dy, Initial residual = 7.46277e-07, Final residual = 7.46277e-07, No Iterations 0
ExecutionTime = 0.63 s  ClockTime = 1 s

Iteration: 243

GAMG:  Solving for Dx, Initial residual = 9.42842e-07, Final residual = 9.42842e-07, No Iterations 0
GAMG:  Solving for Dy, Initial residual = 7.46278e-07, Final residual = 7.46278e-07, No Iterations 0
ExecutionTime = 0.63 s  ClockTime = 1 s

Iteration: 244

GAMG:  Solving for Dx, Initial residual = 9.42842e-07, Final residual = 9.42842e-07, No Iterations 0
GAMG:  Solving for Dy, Initial residual = 7.46279e-07, Final residual = 7.46279e-07, No Iterations 0
ExecutionTime = 0.63 s  ClockTime = 1 s

Iteration: 245

GAMG:  Solving for Dx, Initial residual = 9.42842e-07, Final residual = 9.42842e-07, No Iterations 0
GAMG:  Solving for Dy, Initial residual = 7.4628e-07, Final residual = 7.4628e-07, No Iterations 0
ExecutionTime = 0.63 s  ClockTime = 1 s

Iteration: 246

GAMG:  Solving for Dx, Initial residual = 9.42843e-07, Final residual = 9.42843e-07, No Iterations 0
GAMG:  Solving for Dy, Initial residual = 7.46281e-07, Final residual = 7.46281e-07, No Iterations 0
ExecutionTime = 0.63 s  ClockTime = 1 s

Iteration: 247

GAMG:  Solving for Dx, Initial residual = 9.42843e-07, Final residual = 9.42843e-07, No Iterations 0
GAMG:  Solving for Dy, Initial residual = 7.46281e-07, Final residual = 7.46281e-07, No Iterations 0
ExecutionTime = 0.63 s  ClockTime = 1 s

Iteration: 248

GAMG:  Solving for Dx, Initial residual = 9.42843e-07, Final residual = 9.42843e-07, No Iterations 0
GAMG:  Solving for Dy, Initial residual = 7.46282e-07, Final residual = 7.46282e-07, No Iterations 0
ExecutionTime = 0.63 s  ClockTime = 1 s

Iteration: 249

GAMG:  Solving for Dx, Initial residual = 9.42843e-07, Final residual = 9.42843e-07, No Iterations 0
GAMG:  Solving for Dy, Initial residual = 7.46283e-07, Final residual = 7.46283e-07, No Iterations 0
ExecutionTime = 0.63 s  ClockTime = 1 s

Iteration: 250

GAMG:  Solving for Dx, Initial residual = 9.42843e-07, Final residual = 9.42843e-07, No Iterations 0
GAMG:  Solving for Dy, Initial residual = 7.46283e-07, Final residual = 7.46283e-07, No Iterations 0
ExecutionTime = 0.64 s  ClockTime = 1 s

Iteration: 251

GAMG:  Solving for Dx, Initial residual = 9.42844e-07, Final residual = 9.42844e-07, No Iterations 0
GAMG:  Solving for Dy, Initial residual = 7.46283e-07, Final residual = 7.46283e-07, No Iterations 0
ExecutionTime = 0.65 s  ClockTime = 1 s

Iteration: 252

GAMG:  Solving for Dx, Initial residual = 9.42844e-07, Final residual = 9.42844e-07, No Iterations 0
GAMG:  Solving for Dy, Initial residual = 7.46284e-07, Final residual = 7.46284e-07, No Iterations 0
ExecutionTime = 0.65 s  ClockTime = 1 s

Iteration: 253

GAMG:  Solving for Dx, Initial residual = 9.42844e-07, Final residual = 9.42844e-07, No Iterations 0
GAMG:  Solving for Dy, Initial residual = 7.46284e-07, Final residual = 7.46284e-07, No Iterations 0
ExecutionTime = 0.65 s  ClockTime = 1 s

Iteration: 254

GAMG:  Solving for Dx, Initial residual = 9.42844e-07, Final residual = 9.42844e-07, No Iterations 0
GAMG:  Solving for Dy, Initial residual = 7.46284e-07, Final residual = 7.46284e-07, No Iterations 0
ExecutionTime = 0.65 s  ClockTime = 1 s

Iteration: 255

GAMG:  Solving for Dx, Initial residual = 9.42844e-07, Final residual = 9.42844e-07, No Iterations 0
GAMG:  Solving for Dy, Initial residual = 7.46285e-07, Final residual = 7.46285e-07, No Iterations 0
ExecutionTime = 0.65 s  ClockTime = 1 s

Iteration: 256

GAMG:  Solving for Dx, Initial residual = 9.42844e-07, Final residual = 9.42844e-07, No Iterations 0
GAMG:  Solving for Dy, Initial residual = 7.46285e-07, Final residual = 7.46285e-07, No Iterations 0
ExecutionTime = 0.65 s  ClockTime = 1 s

Iteration: 257

GAMG:  Solving for Dx, Initial residual = 9.42844e-07, Final residual = 9.42844e-07, No Iterations 0
GAMG:  Solving for Dy, Initial residual = 7.46285e-07, Final residual = 7.46285e-07, No Iterations 0
ExecutionTime = 0.65 s  ClockTime = 1 s

Iteration: 258

GAMG:  Solving for Dx, Initial residual = 9.42844e-07, Final residual = 9.42844e-07, No Iterations 0
GAMG:  Solving for Dy, Initial residual = 7.46285e-07, Final residual = 7.46285e-07, No Iterations 0
ExecutionTime = 0.66 s  ClockTime = 1 s

Iteration: 259

GAMG:  Solving for Dx, Initial residual = 9.42844e-07, Final residual = 9.42844e-07, No Iterations 0
GAMG:  Solving for Dy, Initial residual = 7.46286e-07, Final residual = 7.46286e-07, No Iterations 0
ExecutionTime = 0.66 s  ClockTime = 1 s

Iteration: 260

GAMG:  Solving for Dx, Initial residual = 9.42844e-07, Final residual = 9.42844e-07, No Iterations 0
GAMG:  Solving for Dy, Initial residual = 7.46286e-07, Final residual = 7.46286e-07, No Iterations 0
Max sigmaEq = 28860.4
ExecutionTime = 0.68 s  ClockTime = 1 s

Iteration: 261

GAMG:  Solving for Dx, Initial residual = 9.42844e-07, Final residual = 9.42844e-07, No Iterations 0
GAMG:  Solving for Dy, Initial residual = 7.46286e-07, Final residual = 7.46286e-07, No Iterations 0
ExecutionTime = 0.68 s  ClockTime = 1 s

Iteration: 262

GAMG:  Solving for Dx, Initial residual = 9.42845e-07, Final residual = 9.42845e-07, No Iterations 0
GAMG:  Solving for Dy, Initial residual = 7.46286e-07, Final residual = 7.46286e-07, No Iterations 0
ExecutionTime = 0.68 s  ClockTime = 1 s

Iteration: 263

GAMG:  Solving for Dx, Initial residual = 9.42845e-07, Final residual = 9.42845e-07, No Iterations 0
GAMG:  Solving for Dy, Initial residual = 7.46286e-07, Final residual = 7.46286e-07, No Iterations 0
ExecutionTime = 0.69 s  ClockTime = 1 s

Iteration: 264

GAMG:  Solving for Dx, Initial residual = 9.42845e-07, Final residual = 9.42845e-07, No Iterations 0
GAMG:  Solving for Dy, Initial residual = 7.46286e-07, Final residual = 7.46286e-07, No Iterations 0
ExecutionTime = 0.69 s  ClockTime = 1 s

Iteration: 265

GAMG:  Solving for Dx, Initial residual = 9.42845e-07, Final residual = 9.42845e-07, No Iterations 0
GAMG:  Solving for Dy, Initial residual = 7.46286e-07, Final residual = 7.46286e-07, No Iterations 0
ExecutionTime = 0.69 s  ClockTime = 1 s

Iteration: 266

GAMG:  Solving for Dx, Initial residual = 9.42845e-07, Final residual = 9.42845e-07, No Iterations 0
GAMG:  Solving for Dy, Initial residual = 7.46286e-07, Final residual = 7.46286e-07, No Iterations 0
ExecutionTime = 0.69 s  ClockTime = 1 s

Iteration: 267

GAMG:  Solving for Dx, Initial residual = 9.42845e-07, Final residual = 9.42845e-07, No Iterations 0
GAMG:  Solving for Dy, Initial residual = 7.46286e-07, Final residual = 7.46286e-07, No Iterations 0
ExecutionTime = 0.69 s  ClockTime = 1 s

Iteration: 268

GAMG:  Solving for Dx, Initial residual = 9.42845e-07, Final residual = 9.42845e-07, No Iterations 0
GAMG:  Solving for Dy, Initial residual = 7.46286e-07, Final residual = 7.46286e-07, No Iterations 0
ExecutionTime = 0.69 s  ClockTime = 1 s

Iteration: 269

GAMG:  Solving for Dx, Initial residual = 9.42845e-07, Final residual = 9.42845e-07, No Iterations 0
GAMG:  Solving for Dy, Initial residual = 7.46286e-07, Final residual = 7.46286e-07, No Iterations 0
ExecutionTime = 0.69 s  ClockTime = 1 s

Iteration: 270

GAMG:  Solving for Dx, Initial residual = 9.42845e-07, Final residual = 9.42845e-07, No Iterations 0
GAMG:  Solving for Dy, Initial residual = 7.46286e-07, Final residual = 7.46286e-07, No Iterations 0
ExecutionTime = 0.69 s  ClockTime = 1 s

Iteration: 271

GAMG:  Solving for Dx, Initial residual = 9.42845e-07, Final residual = 9.42845e-07, No Iterations 0
GAMG:  Solving for Dy, Initial residual = 7.46286e-07, Final residual = 7.46286e-07, No Iterations 0
ExecutionTime = 0.7 s  ClockTime = 1 s

Iteration: 272

GAMG:  Solving for Dx, Initial residual = 9.42845e-07, Final residual = 9.42845e-07, No Iterations 0
GAMG:  Solving for Dy, Initial residual = 7.46287e-07, Final residual = 7.46287e-07, No Iterations 0
ExecutionTime = 0.7 s  ClockTime = 1 s

Iteration: 273

GAMG:  Solving for Dx, Initial residual = 9.42845e-07, Final residual = 9.42845e-07, No Iterations 0
GAMG:  Solving for Dy, Initial residual = 7.46287e-07, Final residual = 7.46287e-07, No Iterations 0
ExecutionTime = 0.7 s  ClockTime = 1 s

Iteration: 274

GAMG:  Solving for Dx, Initial residual = 9.42845e-07, Final residual = 9.42845e-07, No Iterations 0
GAMG:  Solving for Dy, Initial residual = 7.46287e-07, Final residual = 7.46287e-07, No Iterations 0
ExecutionTime = 0.7 s  ClockTime = 1 s

Iteration: 275

GAMG:  Solving for Dx, Initial residual = 9.42845e-07, Final residual = 9.42845e-07, No Iterations 0
GAMG:  Solving for Dy, Initial residual = 7.46287e-07, Final residual = 7.46287e-07, No Iterations 0
ExecutionTime = 0.7 s  ClockTime = 1 s

Iteration: 276

GAMG:  Solving for Dx, Initial residual = 9.42845e-07, Final residual = 9.42845e-07, No Iterations 0
GAMG:  Solving for Dy, Initial residual = 7.46287e-07, Final residual = 7.46287e-07, No Iterations 0
ExecutionTime = 0.7 s  ClockTime = 1 s

Iteration: 277

GAMG:  Solving for Dx, Initial residual = 9.42845e-07, Final residual = 9.42845e-07, No Iterations 0
GAMG:  Solving for Dy, Initial residual = 7.46287e-07, Final residual = 7.46287e-07, No Iterations 0
ExecutionTime = 0.7 s  ClockTime = 1 s

Iteration: 278

GAMG:  Solving for Dx, Initial residual = 9.42845e-07, Final residual = 9.42845e-07, No Iterations 0
GAMG:  Solving for Dy, Initial residual = 7.46287e-07, Final residual = 7.46287e-07, No Iterations 0
ExecutionTime = 0.7 s  ClockTime = 1 s

Iteration: 279

GAMG:  Solving for Dx, Initial residual = 9.42845e-07, Final residual = 9.42845e-07, No Iterations 0
GAMG:  Solving for Dy, Initial residual = 7.46287e-07, Final residual = 7.46287e-07, No Iterations 0
ExecutionTime = 0.7 s  ClockTime = 1 s

Iteration: 280

GAMG:  Solving for Dx, Initial residual = 9.42845e-07, Final residual = 9.42845e-07, No Iterations 0
GAMG:  Solving for Dy, Initial residual = 7.46287e-07, Final residual = 7.46287e-07, No Iterations 0
Max sigmaEq = 28860.4
ExecutionTime = 0.72 s  ClockTime = 1 s

Iteration: 281

GAMG:  Solving for Dx, Initial residual = 9.42845e-07, Final residual = 9.42845e-07, No Iterations 0
GAMG:  Solving for Dy, Initial residual = 7.46287e-07, Final residual = 7.46287e-07, No Iterations 0
ExecutionTime = 0.72 s  ClockTime = 1 s

Iteration: 282

GAMG:  Solving for Dx, Initial residual = 9.42845e-07, Final residual = 9.42845e-07, No Iterations 0
GAMG:  Solving for Dy, Initial residual = 7.46287e-07, Final residual = 7.46287e-07, No Iterations 0
ExecutionTime = 0.72 s  ClockTime = 1 s

Iteration: 283

GAMG:  Solving for Dx, Initial residual = 9.42845e-07, Final residual = 9.42845e-07, No Iterations 0
GAMG:  Solving for Dy, Initial residual = 7.46287e-07, Final residual = 7.46287e-07, No Iterations 0
ExecutionTime = 0.73 s  ClockTime = 1 s

Iteration: 284

GAMG:  Solving for Dx, Initial residual = 9.42845e-07, Final residual = 9.42845e-07, No Iterations 0
GAMG:  Solving for Dy, Initial residual = 7.46287e-07, Final residual = 7.46287e-07, No Iterations 0
ExecutionTime = 0.73 s  ClockTime = 1 s

Iteration: 285

GAMG:  Solving for Dx, Initial residual = 9.42845e-07, Final residual = 9.42845e-07, No Iterations 0
GAMG:  Solving for Dy, Initial residual = 7.46287e-07, Final residual = 7.46287e-07, No Iterations 0
ExecutionTime = 0.73 s  ClockTime = 1 s

Iteration: 286

GAMG:  Solving for Dx, Initial residual = 9.42845e-07, Final residual = 9.42845e-07, No Iterations 0
GAMG:  Solving for Dy, Initial residual = 7.46287e-07, Final residual = 7.46287e-07, No Iterations 0
ExecutionTime = 0.73 s  ClockTime = 1 s

Iteration: 287

GAMG:  Solving for Dx, Initial residual = 9.42845e-07, Final residual = 9.42845e-07, No Iterations 0
GAMG:  Solving for Dy, Initial residual = 7.46287e-07, Final residual = 7.46287e-07, No Iterations 0
ExecutionTime = 0.74 s  ClockTime = 1 s

Iteration: 288

GAMG:  Solving for Dx, Initial residual = 9.42845e-07, Final residual = 9.42845e-07, No Iterations 0
GAMG:  Solving for Dy, Initial residual = 7.46287e-07, Final residual = 7.46287e-07, No Iterations 0
ExecutionTime = 0.74 s  ClockTime = 1 s

Iteration: 289

GAMG:  Solving for Dx, Initial residual = 9.42845e-07, Final residual = 9.42845e-07, No Iterations 0
GAMG:  Solving for Dy, Initial residual = 7.46287e-07, Final residual = 7.46287e-07, No Iterations 0
ExecutionTime = 0.74 s  ClockTime = 1 s

Iteration: 290

GAMG:  Solving for Dx, Initial residual = 9.42845e-07, Final residual = 9.42845e-07, No Iterations 0
GAMG:  Solving for Dy, Initial residual = 7.46287e-07, Final residual = 7.46287e-07, No Iterations 0
ExecutionTime = 0.74 s  ClockTime = 1 s

Iteration: 291

GAMG:  Solving for Dx, Initial residual = 9.42845e-07, Final residual = 9.42845e-07, No Iterations 0
GAMG:  Solving for Dy, Initial residual = 7.46287e-07, Final residual = 7.46287e-07, No Iterations 0
ExecutionTime = 0.74 s  ClockTime = 1 s

Iteration: 292

GAMG:  Solving for Dx, Initial residual = 9.42845e-07, Final residual = 9.42845e-07, No Iterations 0
GAMG:  Solving for Dy, Initial residual = 7.46287e-07, Final residual = 7.46287e-07, No Iterations 0
ExecutionTime = 0.74 s  ClockTime = 1 s

Iteration: 293

GAMG:  Solving for Dx, Initial residual = 9.42845e-07, Final residual = 9.42845e-07, No Iterations 0
GAMG:  Solving for Dy, Initial residual = 7.46287e-07, Final residual = 7.46287e-07, No Iterations 0
ExecutionTime = 0.74 s  ClockTime = 1 s

Iteration: 294

GAMG:  Solving for Dx, Initial residual = 9.42845e-07, Final residual = 9.42845e-07, No Iterations 0
GAMG:  Solving for Dy, Initial residual = 7.46287e-07, Final residual = 7.46287e-07, No Iterations 0
ExecutionTime = 0.76 s  ClockTime = 1 s

Iteration: 295

GAMG:  Solving for Dx, Initial residual = 9.42845e-07, Final residual = 9.42845e-07, No Iterations 0
GAMG:  Solving for Dy, Initial residual = 7.46287e-07, Final residual = 7.46287e-07, No Iterations 0
ExecutionTime = 0.76 s  ClockTime = 1 s

Iteration: 296

GAMG:  Solving for Dx, Initial residual = 9.42845e-07, Final residual = 9.42845e-07, No Iterations 0
GAMG:  Solving for Dy, Initial residual = 7.46287e-07, Final residual = 7.46287e-07, No Iterations 0
ExecutionTime = 0.76 s  ClockTime = 1 s

Iteration: 297

GAMG:  Solving for Dx, Initial residual = 9.42845e-07, Final residual = 9.42845e-07, No Iterations 0
GAMG:  Solving for Dy, Initial residual = 7.46287e-07, Final residual = 7.46287e-07, No Iterations 0
ExecutionTime = 0.76 s  ClockTime = 1 s

Iteration: 298

GAMG:  Solving for Dx, Initial residual = 9.42845e-07, Final residual = 9.42845e-07, No Iterations 0
GAMG:  Solving for Dy, Initial residual = 7.46287e-07, Final residual = 7.46287e-07, No Iterations 0
ExecutionTime = 0.76 s  ClockTime = 1 s

Iteration: 299

GAMG:  Solving for Dx, Initial residual = 9.42845e-07, Final residual = 9.42845e-07, No Iterations 0
GAMG:  Solving for Dy, Initial residual = 7.46287e-07, Final residual = 7.46287e-07, No Iterations 0
ExecutionTime = 0.76 s  ClockTime = 1 s

Iteration: 300

GAMG:  Solving for Dx, Initial residual = 9.42845e-07, Final residual = 9.42845e-07, No Iterations 0
GAMG:  Solving for Dy, Initial residual = 7.46287e-07, Final residual = 7.46287e-07, No Iterations 0
Max sigmaEq = 28860.4
ExecutionTime = 0.77 s  ClockTime = 1 s

Iteration: 301

GAMG:  Solving for Dx, Initial residual = 9.42845e-07, Final residual = 9.42845e-07, No Iterations 0
GAMG:  Solving for Dy, Initial residual = 7.46287e-07, Final residual = 7.46287e-07, No Iterations 0
ExecutionTime = 0.77 s  ClockTime = 1 s

Iteration: 302

GAMG:  Solving for Dx, Initial residual = 9.42845e-07, Final residual = 9.42845e-07, No Iterations 0
GAMG:  Solving for Dy, Initial residual = 7.46287e-07, Final residual = 7.46287e-07, No Iterations 0
ExecutionTime = 0.78 s  ClockTime = 1 s

Iteration: 303

GAMG:  Solving for Dx, Initial residual = 9.42845e-07, Final residual = 9.42845e-07, No Iterations 0
GAMG:  Solving for Dy, Initial residual = 7.46287e-07, Final residual = 7.46287e-07, No Iterations 0
ExecutionTime = 0.78 s  ClockTime = 1 s

Iteration: 304

GAMG:  Solving for Dx, Initial residual = 9.42845e-07, Final residual = 9.42845e-07, No Iterations 0
GAMG:  Solving for Dy, Initial residual = 7.46287e-07, Final residual = 7.46287e-07, No Iterations 0
ExecutionTime = 0.78 s  ClockTime = 1 s

Iteration: 305

[...]
GAMG:  Solving for Dy, Initial residual = 7.46287e-07, Final residual = 7.46287e-07, No Iterations 0
ExecutionTime = 2.18 s  ClockTime = 2 s

Iteration: 925

GAMG:  Solving for Dx, Initial residual = 9.42845e-07, Final residual = 9.42845e-07, No Iterations 0
GAMG:  Solving for Dy, Initial residual = 7.46287e-07, Final residual = 7.46287e-07, No Iterations 0
ExecutionTime = 2.18 s  ClockTime = 2 s

Iteration: 926

GAMG:  Solving for Dx, Initial residual = 9.42845e-07, Final residual = 9.42845e-07, No Iterations 0
GAMG:  Solving for Dy, Initial residual = 7.46287e-07, Final residual = 7.46287e-07, No Iterations 0
ExecutionTime = 2.18 s  ClockTime = 2 s

Iteration: 927

GAMG:  Solving for Dx, Initial residual = 9.42845e-07, Final residual = 9.42845e-07, No Iterations 0
GAMG:  Solving for Dy, Initial residual = 7.46287e-07, Final residual = 7.46287e-07, No Iterations 0
ExecutionTime = 2.18 s  ClockTime = 2 s

Iteration: 928

GAMG:  Solving for Dx, Initial residual = 9.42845e-07, Final residual = 9.42845e-07, No Iterations 0
GAMG:  Solving for Dy, Initial residual = 7.46287e-07, Final residual = 7.46287e-07, No Iterations 0
ExecutionTime = 2.19 s  ClockTime = 2 s

Iteration: 929

GAMG:  Solving for Dx, Initial residual = 9.42845e-07, Final residual = 9.42845e-07, No Iterations 0
GAMG:  Solving for Dy, Initial residual = 7.46287e-07, Final residual = 7.46287e-07, No Iterations 0
ExecutionTime = 2.19 s  ClockTime = 2 s

Iteration: 930

GAMG:  Solving for Dx, Initial residual = 9.42845e-07, Final residual = 9.42845e-07, No Iterations 0
GAMG:  Solving for Dy, Initial residual = 7.46287e-07, Final residual = 7.46287e-07, No Iterations 0
ExecutionTime = 2.19 s  ClockTime = 2 s

Iteration: 931

GAMG:  Solving for Dx, Initial residual = 9.42845e-07, Final residual = 9.42845e-07, No Iterations 0
GAMG:  Solving for Dy, Initial residual = 7.46287e-07, Final residual = 7.46287e-07, No Iterations 0
ExecutionTime = 2.19 s  ClockTime = 2 s

Iteration: 932

GAMG:  Solving for Dx, Initial residual = 9.42845e-07, Final residual = 9.42845e-07, No Iterations 0
GAMG:  Solving for Dy, Initial residual = 7.46287e-07, Final residual = 7.46287e-07, No Iterations 0
ExecutionTime = 2.19 s  ClockTime = 2 s

Iteration: 933

GAMG:  Solving for Dx, Initial residual = 9.42845e-07, Final residual = 9.42845e-07, No Iterations 0
GAMG:  Solving for Dy, Initial residual = 7.46287e-07, Final residual = 7.46287e-07, No Iterations 0
ExecutionTime = 2.19 s  ClockTime = 2 s

Iteration: 934

GAMG:  Solving for Dx, Initial residual = 9.42845e-07, Final residual = 9.42845e-07, No Iterations 0
GAMG:  Solving for Dy, Initial residual = 7.46287e-07, Final residual = 7.46287e-07, No Iterations 0
ExecutionTime = 2.19 s  ClockTime = 2 s

Iteration: 935

GAMG:  Solving for Dx, Initial residual = 9.42845e-07, Final residual = 9.42845e-07, No Iterations 0
GAMG:  Solving for Dy, Initial residual = 7.46287e-07, Final residual = 7.46287e-07, No Iterations 0
ExecutionTime = 2.2 s  ClockTime = 2 s

Iteration: 936

GAMG:  Solving for Dx, Initial residual = 9.42845e-07, Final residual = 9.42845e-07, No Iterations 0
GAMG:  Solving for Dy, Initial residual = 7.46287e-07, Final residual = 7.46287e-07, No Iterations 0
ExecutionTime = 2.2 s  ClockTime = 2 s

Iteration: 937

GAMG:  Solving for Dx, Initial residual = 9.42845e-07, Final residual = 9.42845e-07, No Iterations 0
GAMG:  Solving for Dy, Initial residual = 7.46287e-07, Final residual = 7.46287e-07, No Iterations 0
ExecutionTime = 2.2 s  ClockTime = 2 s

Iteration: 938

GAMG:  Solving for Dx, Initial residual = 9.42845e-07, Final residual = 9.42845e-07, No Iterations 0
GAMG:  Solving for Dy, Initial residual = 7.46287e-07, Final residual = 7.46287e-07, No Iterations 0
ExecutionTime = 2.2 s  ClockTime = 2 s

Iteration: 939

GAMG:  Solving for Dx, Initial residual = 9.42845e-07, Final residual = 9.42845e-07, No Iterations 0
GAMG:  Solving for Dy, Initial residual = 7.46287e-07, Final residual = 7.46287e-07, No Iterations 0
ExecutionTime = 2.2 s  ClockTime = 2 s

Iteration: 940

GAMG:  Solving for Dx, Initial residual = 9.42845e-07, Final residual = 9.42845e-07, No Iterations 0
GAMG:  Solving for Dy, Initial residual = 7.46287e-07, Final residual = 7.46287e-07, No Iterations 0
Max sigmaEq = 28860.4
ExecutionTime = 2.21 s  ClockTime = 2 s

Iteration: 941

GAMG:  Solving for Dx, Initial residual = 9.42845e-07, Final residual = 9.42845e-07, No Iterations 0
GAMG:  Solving for Dy, Initial residual = 7.46287e-07, Final residual = 7.46287e-07, No Iterations 0
ExecutionTime = 2.21 s  ClockTime = 2 s

Iteration: 942

GAMG:  Solving for Dx, Initial residual = 9.42845e-07, Final residual = 9.42845e-07, No Iterations 0
GAMG:  Solving for Dy, Initial residual = 7.46287e-07, Final residual = 7.46287e-07, No Iterations 0
ExecutionTime = 2.22 s  ClockTime = 2 s

Iteration: 943

GAMG:  Solving for Dx, Initial residual = 9.42845e-07, Final residual = 9.42845e-07, No Iterations 0
GAMG:  Solving for Dy, Initial residual = 7.46287e-07, Final residual = 7.46287e-07, No Iterations 0
ExecutionTime = 2.22 s  ClockTime = 2 s

Iteration: 944

GAMG:  Solving for Dx, Initial residual = 9.42845e-07, Final residual = 9.42845e-07, No Iterations 0
GAMG:  Solving for Dy, Initial residual = 7.46287e-07, Final residual = 7.46287e-07, No Iterations 0
ExecutionTime = 2.22 s  ClockTime = 2 s

Iteration: 945

GAMG:  Solving for Dx, Initial residual = 9.42845e-07, Final residual = 9.42845e-07, No Iterations 0
GAMG:  Solving for Dy, Initial residual = 7.46287e-07, Final residual = 7.46287e-07, No Iterations 0
ExecutionTime = 2.22 s  ClockTime = 2 s

Iteration: 946

GAMG:  Solving for Dx, Initial residual = 9.42845e-07, Final residual = 9.42845e-07, No Iterations 0
GAMG:  Solving for Dy, Initial residual = 7.46287e-07, Final residual = 7.46287e-07, No Iterations 0
ExecutionTime = 2.22 s  ClockTime = 2 s

Iteration: 947

GAMG:  Solving for Dx, Initial residual = 9.42845e-07, Final residual = 9.42845e-07, No Iterations 0
GAMG:  Solving for Dy, Initial residual = 7.46287e-07, Final residual = 7.46287e-07, No Iterations 0
ExecutionTime = 2.22 s  ClockTime = 2 s

Iteration: 948

GAMG:  Solving for Dx, Initial residual = 9.42845e-07, Final residual = 9.42845e-07, No Iterations 0
GAMG:  Solving for Dy, Initial residual = 7.46287e-07, Final residual = 7.46287e-07, No Iterations 0
ExecutionTime = 2.22 s  ClockTime = 2 s

Iteration: 949

GAMG:  Solving for Dx, Initial residual = 9.42845e-07, Final residual = 9.42845e-07, No Iterations 0
GAMG:  Solving for Dy, Initial residual = 7.46287e-07, Final residual = 7.46287e-07, No Iterations 0
ExecutionTime = 2.22 s  ClockTime = 2 s

Iteration: 950

GAMG:  Solving for Dx, Initial residual = 9.42845e-07, Final residual = 9.42845e-07, No Iterations 0
GAMG:  Solving for Dy, Initial residual = 7.46287e-07, Final residual = 7.46287e-07, No Iterations 0
ExecutionTime = 2.23 s  ClockTime = 2 s

Iteration: 951

GAMG:  Solving for Dx, Initial residual = 9.42845e-07, Final residual = 9.42845e-07, No Iterations 0
GAMG:  Solving for Dy, Initial residual = 7.46287e-07, Final residual = 7.46287e-07, No Iterations 0
ExecutionTime = 2.23 s  ClockTime = 2 s

Iteration: 952

GAMG:  Solving for Dx, Initial residual = 9.42845e-07, Final residual = 9.42845e-07, No Iterations 0
GAMG:  Solving for Dy, Initial residual = 7.46287e-07, Final residual = 7.46287e-07, No Iterations 0
ExecutionTime = 2.23 s  ClockTime = 2 s

Iteration: 953

GAMG:  Solving for Dx, Initial residual = 9.42845e-07, Final residual = 9.42845e-07, No Iterations 0
GAMG:  Solving for Dy, Initial residual = 7.46287e-07, Final residual = 7.46287e-07, No Iterations 0
ExecutionTime = 2.23 s  ClockTime = 2 s

Iteration: 954

GAMG:  Solving for Dx, Initial residual = 9.42845e-07, Final residual = 9.42845e-07, No Iterations 0
GAMG:  Solving for Dy, Initial residual = 7.46287e-07, Final residual = 7.46287e-07, No Iterations 0
ExecutionTime = 2.23 s  ClockTime = 2 s

Iteration: 955

GAMG:  Solving for Dx, Initial residual = 9.42845e-07, Final residual = 9.42845e-07, No Iterations 0
GAMG:  Solving for Dy, Initial residual = 7.46287e-07, Final residual = 7.46287e-07, No Iterations 0
ExecutionTime = 2.23 s  ClockTime = 2 s

Iteration: 956

GAMG:  Solving for Dx, Initial residual = 9.42845e-07, Final residual = 9.42845e-07, No Iterations 0
GAMG:  Solving for Dy, Initial residual = 7.46287e-07, Final residual = 7.46287e-07, No Iterations 0
ExecutionTime = 2.23 s  ClockTime = 2 s

Iteration: 957

GAMG:  Solving for Dx, Initial residual = 9.42845e-07, Final residual = 9.42845e-07, No Iterations 0
GAMG:  Solving for Dy, Initial residual = 7.46287e-07, Final residual = 7.46287e-07, No Iterations 0
ExecutionTime = 2.24 s  ClockTime = 2 s

Iteration: 958

GAMG:  Solving for Dx, Initial residual = 9.42845e-07, Final residual = 9.42845e-07, No Iterations 0
GAMG:  Solving for Dy, Initial residual = 7.46287e-07, Final residual = 7.46287e-07, No Iterations 0
ExecutionTime = 2.24 s  ClockTime = 2 s

Iteration: 959

GAMG:  Solving for Dx, Initial residual = 9.42845e-07, Final residual = 9.42845e-07, No Iterations 0
GAMG:  Solving for Dy, Initial residual = 7.46287e-07, Final residual = 7.46287e-07, No Iterations 0
ExecutionTime = 2.24 s  ClockTime = 2 s

Iteration: 960

GAMG:  Solving for Dx, Initial residual = 9.42845e-07, Final residual = 9.42845e-07, No Iterations 0
GAMG:  Solving for Dy, Initial residual = 7.46287e-07, Final residual = 7.46287e-07, No Iterations 0
Max sigmaEq = 28860.4
ExecutionTime = 2.25 s  ClockTime = 2 s

Iteration: 961

GAMG:  Solving for Dx, Initial residual = 9.42845e-07, Final residual = 9.42845e-07, No Iterations 0
GAMG:  Solving for Dy, Initial residual = 7.46287e-07, Final residual = 7.46287e-07, No Iterations 0
ExecutionTime = 2.26 s  ClockTime = 2 s

Iteration: 962

GAMG:  Solving for Dx, Initial residual = 9.42845e-07, Final residual = 9.42845e-07, No Iterations 0
GAMG:  Solving for Dy, Initial residual = 7.46287e-07, Final residual = 7.46287e-07, No Iterations 0
ExecutionTime = 2.26 s  ClockTime = 2 s

Iteration: 963

GAMG:  Solving for Dx, Initial residual = 9.42845e-07, Final residual = 9.42845e-07, No Iterations 0
GAMG:  Solving for Dy, Initial residual = 7.46287e-07, Final residual = 7.46287e-07, No Iterations 0
ExecutionTime = 2.26 s  ClockTime = 2 s

Iteration: 964

GAMG:  Solving for Dx, Initial residual = 9.42845e-07, Final residual = 9.42845e-07, No Iterations 0
GAMG:  Solving for Dy, Initial residual = 7.46287e-07, Final residual = 7.46287e-07, No Iterations 0
ExecutionTime = 2.26 s  ClockTime = 2 s

Iteration: 965

GAMG:  Solving for Dx, Initial residual = 9.42845e-07, Final residual = 9.42845e-07, No Iterations 0
GAMG:  Solving for Dy, Initial residual = 7.46287e-07, Final residual = 7.46287e-07, No Iterations 0
ExecutionTime = 2.26 s  ClockTime = 2 s

Iteration: 966

GAMG:  Solving for Dx, Initial residual = 9.42845e-07, Final residual = 9.42845e-07, No Iterations 0
GAMG:  Solving for Dy, Initial residual = 7.46287e-07, Final residual = 7.46287e-07, No Iterations 0
ExecutionTime = 2.26 s  ClockTime = 2 s

Iteration: 967

GAMG:  Solving for Dx, Initial residual = 9.42845e-07, Final residual = 9.42845e-07, No Iterations 0
GAMG:  Solving for Dy, Initial residual = 7.46287e-07, Final residual = 7.46287e-07, No Iterations 0
ExecutionTime = 2.26 s  ClockTime = 2 s

Iteration: 968

GAMG:  Solving for Dx, Initial residual = 9.42845e-07, Final residual = 9.42845e-07, No Iterations 0
GAMG:  Solving for Dy, Initial residual = 7.46287e-07, Final residual = 7.46287e-07, No Iterations 0
ExecutionTime = 2.27 s  ClockTime = 2 s

Iteration: 969

GAMG:  Solving for Dx, Initial residual = 9.42845e-07, Final residual = 9.42845e-07, No Iterations 0
GAMG:  Solving for Dy, Initial residual = 7.46287e-07, Final residual = 7.46287e-07, No Iterations 0
ExecutionTime = 2.27 s  ClockTime = 2 s

Iteration: 970

GAMG:  Solving for Dx, Initial residual = 9.42845e-07, Final residual = 9.42845e-07, No Iterations 0
GAMG:  Solving for Dy, Initial residual = 7.46287e-07, Final residual = 7.46287e-07, No Iterations 0
ExecutionTime = 2.27 s  ClockTime = 2 s

Iteration: 971

GAMG:  Solving for Dx, Initial residual = 9.42845e-07, Final residual = 9.42845e-07, No Iterations 0
GAMG:  Solving for Dy, Initial residual = 7.46287e-07, Final residual = 7.46287e-07, No Iterations 0
ExecutionTime = 2.27 s  ClockTime = 2 s

Iteration: 972

GAMG:  Solving for Dx, Initial residual = 9.42845e-07, Final residual = 9.42845e-07, No Iterations 0
GAMG:  Solving for Dy, Initial residual = 7.46287e-07, Final residual = 7.46287e-07, No Iterations 0
ExecutionTime = 2.27 s  ClockTime = 2 s

Iteration: 973

GAMG:  Solving for Dx, Initial residual = 9.42845e-07, Final residual = 9.42845e-07, No Iterations 0
GAMG:  Solving for Dy, Initial residual = 7.46287e-07, Final residual = 7.46287e-07, No Iterations 0
ExecutionTime = 2.27 s  ClockTime = 2 s

Iteration: 974

GAMG:  Solving for Dx, Initial residual = 9.42845e-07, Final residual = 9.42845e-07, No Iterations 0
GAMG:  Solving for Dy, Initial residual = 7.46287e-07, Final residual = 7.46287e-07, No Iterations 0
ExecutionTime = 2.27 s  ClockTime = 2 s

Iteration: 975

GAMG:  Solving for Dx, Initial residual = 9.42845e-07, Final residual = 9.42845e-07, No Iterations 0
GAMG:  Solving for Dy, Initial residual = 7.46287e-07, Final residual = 7.46287e-07, No Iterations 0
ExecutionTime = 2.27 s  ClockTime = 2 s

Iteration: 976

GAMG:  Solving for Dx, Initial residual = 9.42845e-07, Final residual = 9.42845e-07, No Iterations 0
GAMG:  Solving for Dy, Initial residual = 7.46287e-07, Final residual = 7.46287e-07, No Iterations 0
ExecutionTime = 2.28 s  ClockTime = 2 s

Iteration: 977

GAMG:  Solving for Dx, Initial residual = 9.42845e-07, Final residual = 9.42845e-07, No Iterations 0
GAMG:  Solving for Dy, Initial residual = 7.46287e-07, Final residual = 7.46287e-07, No Iterations 0
ExecutionTime = 2.28 s  ClockTime = 2 s

Iteration: 978

GAMG:  Solving for Dx, Initial residual = 9.42845e-07, Final residual = 9.42845e-07, No Iterations 0
GAMG:  Solving for Dy, Initial residual = 7.46287e-07, Final residual = 7.46287e-07, No Iterations 0
ExecutionTime = 2.28 s  ClockTime = 2 s

Iteration: 979

GAMG:  Solving for Dx, Initial residual = 9.42845e-07, Final residual = 9.42845e-07, No Iterations 0
GAMG:  Solving for Dy, Initial residual = 7.46287e-07, Final residual = 7.46287e-07, No Iterations 0
ExecutionTime = 2.28 s  ClockTime = 2 s

Iteration: 980

GAMG:  Solving for Dx, Initial residual = 9.42845e-07, Final residual = 9.42845e-07, No Iterations 0
GAMG:  Solving for Dy, Initial residual = 7.46287e-07, Final residual = 7.46287e-07, No Iterations 0
Max sigmaEq = 28860.4
ExecutionTime = 2.31 s  ClockTime = 2 s

Iteration: 981

GAMG:  Solving for Dx, Initial residual = 9.42845e-07, Final residual = 9.42845e-07, No Iterations 0
GAMG:  Solving for Dy, Initial residual = 7.46287e-07, Final residual = 7.46287e-07, No Iterations 0
ExecutionTime = 2.31 s  ClockTime = 2 s

Iteration: 982

GAMG:  Solving for Dx, Initial residual = 9.42845e-07, Final residual = 9.42845e-07, No Iterations 0
GAMG:  Solving for Dy, Initial residual = 7.46287e-07, Final residual = 7.46287e-07, No Iterations 0
ExecutionTime = 2.31 s  ClockTime = 2 s

Iteration: 983

GAMG:  Solving for Dx, Initial residual = 9.42845e-07, Final residual = 9.42845e-07, No Iterations 0
GAMG:  Solving for Dy, Initial residual = 7.46287e-07, Final residual = 7.46287e-07, No Iterations 0
ExecutionTime = 2.31 s  ClockTime = 2 s

Iteration: 984

GAMG:  Solving for Dx, Initial residual = 9.42845e-07, Final residual = 9.42845e-07, No Iterations 0
GAMG:  Solving for Dy, Initial residual = 7.46287e-07, Final residual = 7.46287e-07, No Iterations 0
ExecutionTime = 2.31 s  ClockTime = 2 s

Iteration: 985

GAMG:  Solving for Dx, Initial residual = 9.42845e-07, Final residual = 9.42845e-07, No Iterations 0
GAMG:  Solving for Dy, Initial residual = 7.46287e-07, Final residual = 7.46287e-07, No Iterations 0
ExecutionTime = 2.31 s  ClockTime = 2 s

Iteration: 986

GAMG:  Solving for Dx, Initial residual = 9.42845e-07, Final residual = 9.42845e-07, No Iterations 0
GAMG:  Solving for Dy, Initial residual = 7.46287e-07, Final residual = 7.46287e-07, No Iterations 0
ExecutionTime = 2.31 s  ClockTime = 2 s

Iteration: 987

GAMG:  Solving for Dx, Initial residual = 9.42845e-07, Final residual = 9.42845e-07, No Iterations 0
GAMG:  Solving for Dy, Initial residual = 7.46287e-07, Final residual = 7.46287e-07, No Iterations 0
ExecutionTime = 2.32 s  ClockTime = 2 s

Iteration: 988

GAMG:  Solving for Dx, Initial residual = 9.42845e-07, Final residual = 9.42845e-07, No Iterations 0
GAMG:  Solving for Dy, Initial residual = 7.46287e-07, Final residual = 7.46287e-07, No Iterations 0
ExecutionTime = 2.32 s  ClockTime = 2 s

Iteration: 989

GAMG:  Solving for Dx, Initial residual = 9.42845e-07, Final residual = 9.42845e-07, No Iterations 0
GAMG:  Solving for Dy, Initial residual = 7.46287e-07, Final residual = 7.46287e-07, No Iterations 0
ExecutionTime = 2.32 s  ClockTime = 2 s

Iteration: 990

GAMG:  Solving for Dx, Initial residual = 9.42845e-07, Final residual = 9.42845e-07, No Iterations 0
GAMG:  Solving for Dy, Initial residual = 7.46287e-07, Final residual = 7.46287e-07, No Iterations 0
ExecutionTime = 2.32 s  ClockTime = 2 s

Iteration: 991

GAMG:  Solving for Dx, Initial residual = 9.42845e-07, Final residual = 9.42845e-07, No Iterations 0
GAMG:  Solving for Dy, Initial residual = 7.46287e-07, Final residual = 7.46287e-07, No Iterations 0
ExecutionTime = 2.32 s  ClockTime = 2 s

Iteration: 992

GAMG:  Solving for Dx, Initial residual = 9.42845e-07, Final residual = 9.42845e-07, No Iterations 0
GAMG:  Solving for Dy, Initial residual = 7.46287e-07, Final residual = 7.46287e-07, No Iterations 0
ExecutionTime = 2.32 s  ClockTime = 2 s

Iteration: 993

GAMG:  Solving for Dx, Initial residual = 9.42845e-07, Final residual = 9.42845e-07, No Iterations 0
GAMG:  Solving for Dy, Initial residual = 7.46287e-07, Final residual = 7.46287e-07, No Iterations 0
ExecutionTime = 2.32 s  ClockTime = 2 s

Iteration: 994

GAMG:  Solving for Dx, Initial residual = 9.42845e-07, Final residual = 9.42845e-07, No Iterations 0
GAMG:  Solving for Dy, Initial residual = 7.46287e-07, Final residual = 7.46287e-07, No Iterations 0
ExecutionTime = 2.33 s  ClockTime = 2 s

Iteration: 995

GAMG:  Solving for Dx, Initial residual = 9.42845e-07, Final residual = 9.42845e-07, No Iterations 0
GAMG:  Solving for Dy, Initial residual = 7.46287e-07, Final residual = 7.46287e-07, No Iterations 0
ExecutionTime = 2.33 s  ClockTime = 2 s

Iteration: 996

GAMG:  Solving for Dx, Initial residual = 9.42845e-07, Final residual = 9.42845e-07, No Iterations 0
GAMG:  Solving for Dy, Initial residual = 7.46287e-07, Final residual = 7.46287e-07, No Iterations 0
ExecutionTime = 2.33 s  ClockTime = 2 s

Iteration: 997

GAMG:  Solving for Dx, Initial residual = 9.42845e-07, Final residual = 9.42845e-07, No Iterations 0
GAMG:  Solving for Dy, Initial residual = 7.46287e-07, Final residual = 7.46287e-07, No Iterations 0
ExecutionTime = 2.33 s  ClockTime = 2 s

Iteration: 998

GAMG:  Solving for Dx, Initial residual = 9.42845e-07, Final residual = 9.42845e-07, No Iterations 0
GAMG:  Solving for Dy, Initial residual = 7.46287e-07, Final residual = 7.46287e-07, No Iterations 0
ExecutionTime = 2.33 s  ClockTime = 2 s

Iteration: 999

GAMG:  Solving for Dx, Initial residual = 9.42845e-07, Final residual = 9.42845e-07, No Iterations 0
GAMG:  Solving for Dy, Initial residual = 7.46287e-07, Final residual = 7.46287e-07, No Iterations 0
ExecutionTime = 2.33 s  ClockTime = 2 s

Iteration: 1000

GAMG:  Solving for Dx, Initial residual = 9.42845e-07, Final residual = 9.42845e-07, No Iterations 0
GAMG:  Solving for Dy, Initial residual = 7.46287e-07, Final residual = 7.46287e-07, No Iterations 0
Max sigmaEq = 28860.4
ExecutionTime = 2.35 s  ClockTime = 2 s

End

