/opt/hamzstlib/openfoam/OpenFOAM-9/bin/tools/RunFunctions: line 93: topoSet: command not found
