/opt/hamzstlib/openfoam/OpenFOAM-9/bin/tools/RunFunctions: line 93: blockMesh: command not found
