/*---------------------------------------------------------------------------*\
  =========                 |
  \\      /  F ield         | OpenFOAM: The Open Source CFD Toolbox
   \\    /   O peration     | Website:  https://openfoam.org
    \\  /    A nd           | Version:  9
     \\/     M anipulation  |
\*---------------------------------------------------------------------------*/
Build  : 9
Exec   : chemkinToFoam chemkin/chem.inp chemkin/therm.dat chemkin/transportProperties constant/reactions constant/speciesThermo
Date   : May 06 2022
Time   : 14:28:39
Host   : "GFreya"
PID    : 10335
I/O    : uncollated
Case   : /root/OpenFOAM/root-9/run/tutorials/combustion/reactingFoam/Lagrangian/aachenBomb
nProcs : 1
sigFpe : Enabling floating point exception trapping (FOAM_SIGFPE).
fileModificationChecking : Monitoring run-time modified files using timeStampMaster (fileModificationSkew 10)
allowSystemOperations : Allowing user-supplied system call operations

// * * * * * * * * * * * * * * * * * * * * * * * * * * * * * * * * * * * * * //
End

