/*---------------------------------------------------------------------------*\
  =========                 |
  \\      /  F ield         | OpenFOAM: The Open Source CFD Toolbox
   \\    /   O peration     | Website:  https://openfoam.org
    \\  /    A nd           | Version:  9
     \\/     M anipulation  |
\*---------------------------------------------------------------------------*/
Build  : 9
Exec   : reactingFoam
Date   : May 06 2022
Time   : 14:28:41
Host   : "GFreya"
PID    : 10337
I/O    : uncollated
Case   : /root/OpenFOAM/root-9/run/tutorials/combustion/reactingFoam/Lagrangian/aachenBomb
nProcs : 1
sigFpe : Enabling floating point exception trapping (FOAM_SIGFPE).
fileModificationChecking : Monitoring run-time modified files using timeStampMaster (fileModificationSkew 10)
allowSystemOperations : Allowing user-supplied system call operations

// * * * * * * * * * * * * * * * * * * * * * * * * * * * * * * * * * * * * * //
Create time

Create mesh for time = 0


PIMPLE: No convergence criteria found


PIMPLE: Operating solver in transient mode with 1 outer corrector
PIMPLE: Operating solver in PISO mode


Reading thermophysical properties

Selecting thermodynamics package 
{
    type            heRhoThermo;
    mixture         multiComponentMixture;
    transport       sutherland;
    thermo          janaf;
    energy          sensibleEnthalpy;
    equationOfState perfectGas;
    specie          specie;
}

Reading field U

Reading/calculating face flux field phi

Creating turbulence model.

Selecting turbulence model type RAS
Selecting RAS turbulence model kEpsilon
RAS
{
    model           kEpsilon;
    turbulence      on;
    printCoeffs     on;
    Cmu             0.09;
    C1              1.44;
    C2              1.92;
    C3              0;
    sigmak          1;
    sigmaEps        1.3;
}

Creating thermophysical transport model

Selecting thermophysical transport type RAS
Selecting default RAS thermophysical transport model unityLewisEddyDiffusivity
Creating reaction model

Selecting combustion model PaSR
Selecting chemistry solver 
{
    solver          ode;
    method          standard;
}

standardChemistryModel: Number of species = 5 and reactions = 1
Selecting ODE solver seulex
    using integrated reaction rate
Creating field dpdt

Creating field kinetic energy K

No MRF models present

Creating fvModels from "constant/fvModels"

Selecting finite volume model type buoyancyForce
    Name: buoyancyForce
Selecting finite volume model type clouds
    Name: clouds
Selecting parcelCloud sprayCloud
Constructing particle forces
    Selecting particle force sphereDrag
Constructing cloud functions
    none
Constructing particle injection models
Creating injector: model1
Selecting injection model coneInjection
    Constructing 3-D injection
Selecting distribution model RosinRammler
    Distribution min: 1e-06 max: 0.00015 mean: 0.00015
Selecting dispersion model none
Selecting patch interaction model standardWallInteraction
Selecting stochastic collision model none
Selecting surface film model none
Selecting U integration scheme Euler
Creating component thermo properties:
    liquids - 1 components
    solids - 0 components
Selecting heat transfer model RanzMarshall
Selecting composition model singlePhaseMixture
Selecting T integration scheme analytical
Selecting phase change model liquidEvaporationBoil
Participating liquid species:
    C7H16
Selecting AtomisationModel none
Selecting BreakupModel ReitzDiwakar
Average parcel mass: 2.4e-10
No fvConstraints present
Courant Number mean: 0 max: 0

Starting time loop

    writing object Qdot
Courant Number mean: 0 max: 0
deltaT = 2.94118e-06
Time = 2.94118e-06

diagonal:  Solving for rho, Initial residual = 0, Final residual = 0, No Iterations 0

Solving 3-D cloud cloud

Cloud: cloud injector: model1
    Added 58 new parcels

Cloud: cloud
    Current number of parcels       = 58
    Current mass in system          = 6.86834e-10
    Linear momentum                 = (-2.0238e-10 -9.22153e-09 4.10152e-11)
   |Linear momentum|                = 9.22384e-09
    Linear kinetic energy           = 7.12935e-08
    model1:
        number of parcels added     = 58
        mass introduced             = 6.86841e-10
    Parcel fate (number, mass)
      - escape                      = 0, 0
      - stick                       = 0, 0
    Temperature min/max             = 320.41, 322.239
    Mass transfer phase change      = 7.0492e-15
    D10, D32, Dmax (mu)             = 84.9732, 105.328, 147.734
    Liquid penetration 95% mass (m) = 6.3459e-05

smoothSolver:  Solving for Ux, Initial residual = 1, Final residual = 4.3999e-07, No Iterations 2
smoothSolver:  Solving for Uy, Initial residual = 1, Final residual = 4.98394e-07, No Iterations 2
smoothSolver:  Solving for Uz, Initial residual = 1, Final residual = 4.39892e-07, No Iterations 2
DILUPBiCGStab:  Solving for C7H16, Initial residual = 1, Final residual = 2.522e-09, No Iterations 1
DILUPBiCGStab:  Solving for O2, Initial residual = 0.000141175, Final residual = 1.16993e-13, No Iterations 1
DILUPBiCGStab:  Solving for CO2, Initial residual = 0, Final residual = 0, No Iterations 0
DILUPBiCGStab:  Solving for H2O, Initial residual = 0, Final residual = 0, No Iterations 0
DILUPBiCGStab:  Solving for h, Initial residual = 0.999071, Final residual = 2.51966e-09, No Iterations 1
min/max(T) = 799.798, 800
GAMG:  Solving for p, Initial residual = 0.999999, Final residual = 0.0619409, No Iterations 2
diagonal:  Solving for rho, Initial residual = 0, Final residual = 0, No Iterations 0
time step continuity errors : sum local = 2.15983e-10, global = -7.4155e-12, cumulative = -7.4155e-12
GAMG:  Solving for p, Initial residual = 0.0267056, Final residual = 5.0253e-07, No Iterations 8
diagonal:  Solving for rho, Initial residual = 0, Final residual = 0, No Iterations 0
time step continuity errors : sum local = 5.72365e-15, global = 1.42973e-16, cumulative = -7.41535e-12
smoothSolver:  Solving for epsilon, Initial residual = 0.00241979, Final residual = 6.74282e-07, No Iterations 1
smoothSolver:  Solving for k, Initial residual = 1, Final residual = 3.62204e-07, No Iterations 2
ExecutionTime = 12.81 s  ClockTime = 14 s

Courant Number mean: 9.13969e-08 max: 0.000120879
deltaT = 3.36134e-06
Time = 6.30252e-06

diagonal:  Solving for rho, Initial residual = 0, Final residual = 0, No Iterations 0

Solving 3-D cloud cloud

Cloud: cloud injector: model1
    Added 68 new parcels

Cloud: cloud
    Current number of parcels       = 126
    Current mass in system          = 2.52494e-09
    Linear momentum                 = (3.17309e-11 -6.61193e-08 6.10812e-10)
   |Linear momentum|                = 6.61222e-08
    Linear kinetic energy           = 9.96083e-07
    model1:
        number of parcels added     = 126
        mass introduced             = 2.52502e-09
    Parcel fate (number, mass)
      - escape                      = 0, 0
      - stick                       = 0, 0
    Temperature min/max             = 320.679, 348.953
    Mass transfer phase change      = 8.52922e-14
    D10, D32, Dmax (mu)             = 27.9393, 84.2612, 146.563
    Liquid penetration 95% mass (m) = 0.000147222

smoothSolver:  Solving for Ux, Initial residual = 0.368837, Final residual = 1.01094e-07, No Iterations 2
smoothSolver:  Solving for Uy, Initial residual = 0.925039, Final residual = 6.3648e-07, No Iterations 2
smoothSolver:  Solving for Uz, Initial residual = 0.367409, Final residual = 1.0186e-07, No Iterations 2
DILUPBiCGStab:  Solving for C7H16, Initial residual = 0.715443, Final residual = 1.10994e-08, No Iterations 1
DILUPBiCGStab:  Solving for O2, Initial residual = 0.9823, Final residual = 1.52171e-08, No Iterations 1
DILUPBiCGStab:  Solving for CO2, Initial residual = 1, Final residual = 1.54913e-08, No Iterations 1
DILUPBiCGStab:  Solving for H2O, Initial residual = 1, Final residual = 1.54913e-08, No Iterations 1
DILUPBiCGStab:  Solving for h, Initial residual = 0.713823, Final residual = 1.42007e-08, No Iterations 1
min/max(T) = 797.978, 800
GAMG:  Solving for p, Initial residual = 0.698212, Final residual = 0.0509634, No Iterations 2
diagonal:  Solving for rho, Initial residual = 0, Final residual = 0, No Iterations 0
time step continuity errors : sum local = 1.89026e-09, global = -1.32384e-10, cumulative = -1.39799e-10
GAMG:  Solving for p, Initial residual = 0.0217032, Final residual = 5.7166e-07, No Iterations 8
diagonal:  Solving for rho, Initial residual = 0, Final residual = 0, No Iterations 0
time step continuity errors : sum local = 5.02922e-14, global = -4.05788e-17, cumulative = -1.39799e-10
smoothSolver:  Solving for epsilon, Initial residual = 0.00128524, Final residual = 3.93149e-07, No Iterations 1
smoothSolver:  Solving for k, Initial residual = 0.432937, Final residual = 1.23927e-07, No Iterations 2
ExecutionTime = 17.38 s  ClockTime = 18 s

Courant Number mean: 3.17907e-07 max: 0.00146253
deltaT = 3.9725e-06
Time = 1.0275e-05

diagonal:  Solving for rho, Initial residual = 0, Final residual = 0, No Iterations 0

Solving 3-D cloud cloud

Cloud: cloud injector: model1
    Added 79 new parcels

Cloud: cloud
    Current number of parcels       = 205
    Current mass in system          = 6.14548e-09
    Linear momentum                 = (1.03526e-10 -2.47989e-07 -1.25727e-09)
   |Linear momentum|                = 2.47992e-07
    Linear kinetic energy           = 5.7507e-06
    model1:
        number of parcels added     = 205
        mass introduced             = 6.14581e-09
    Parcel fate (number, mass)
      - escape                      = 0, 0
      - stick                       = 0, 0
    Temperature min/max             = 321.023, 366.559
    Mass transfer phase change      = 3.29191e-13
    D10, D32, Dmax (mu)             = 35.054, 84.3947, 146.413
    Liquid penetration 95% mass (m) = 0.000314369

smoothSolver:  Solving for Ux, Initial residual = 0.350933, Final residual = 1.93676e-07, No Iterations 2
smoothSolver:  Solving for Uy, Initial residual = 0.662888, Final residual = 6.89141e-07, No Iterations 2
smoothSolver:  Solving for Uz, Initial residual = 0.351536, Final residual = 1.93541e-07, No Iterations 2
DILUPBiCGStab:  Solving for C7H16, Initial residual = 0.401843, Final residual = 1.39941e-08, No Iterations 1
DILUPBiCGStab:  Solving for O2, Initial residual = 0.556629, Final residual = 1.98845e-08, No Iterations 1
DILUPBiCGStab:  Solving for CO2, Initial residual = 0.53718, Final residual = 1.93215e-08, No Iterations 1
DILUPBiCGStab:  Solving for H2O, Initial residual = 0.53718, Final residual = 1.93215e-08, No Iterations 1
DILUPBiCGStab:  Solving for h, Initial residual = 0.430289, Final residual = 2.37751e-08, No Iterations 1
min/max(T) = 792.652, 800
GAMG:  Solving for p, Initial residual = 0.525139, Final residual = 0.0257739, No Iterations 2
diagonal:  Solving for rho, Initial residual = 0, Final residual = 0, No Iterations 0
time step continuity errors : sum local = 5.23255e-09, global = -1.13903e-09, cumulative = -1.27883e-09
GAMG:  Solving for p, Initial residual = 0.0156942, Final residual = 4.7809e-07, No Iterations 8
diagonal:  Solving for rho, Initial residual = 0, Final residual = 0, No Iterations 0
time step continuity errors : sum local = 1.83808e-13, global = -2.12729e-16, cumulative = -1.27883e-09
smoothSolver:  Solving for epsilon, Initial residual = 0.00141663, Final residual = 5.59347e-07, No Iterations 1
smoothSolver:  Solving for k, Initial residual = 0.257032, Final residual = 1.37852e-07, No Iterations 2
ExecutionTime = 22.21 s  ClockTime = 23 s

Courant Number mean: 9.87255e-07 max: 0.00700911
deltaT = 4.41389e-06
Time = 1.46889e-05

diagonal:  Solving for rho, Initial residual = 0, Final residual = 0, No Iterations 0

Solving 3-D cloud cloud

Cloud: cloud injector: model1
    Added 88 new parcels

Cloud: cloud
    Current number of parcels       = 293
    Current mass in system          = 1.20082e-08
    Linear momentum                 = (2.90591e-09 -6.58913e-07 -6.21445e-09)
   |Linear momentum|                = 6.58949e-07
    Linear kinetic energy           = 2.07823e-05
    model1:
        number of parcels added     = 293
        mass introduced             = 1.20092e-08
    Parcel fate (number, mass)
      - escape                      = 0, 0
      - stick                       = 0, 0
    Temperature min/max             = 321.251, 384
    Mass transfer phase change      = 1.01291e-12
    D10, D32, Dmax (mu)             = 34, 77.9157, 145.058
    Liquid penetration 95% mass (m) = 0.00052689

smoothSolver:  Solving for Ux, Initial residual = 0.300159, Final residual = 2.73452e-07, No Iterations 2
smoothSolver:  Solving for Uy, Initial residual = 0.477976, Final residual = 5.4315e-07, No Iterations 2
smoothSolver:  Solving for Uz, Initial residual = 0.303061, Final residual = 2.68985e-07, No Iterations 2
DILUPBiCGStab:  Solving for C7H16, Initial residual = 0.351118, Final residual = 4.3381e-08, No Iterations 1
DILUPBiCGStab:  Solving for O2, Initial residual = 0.269629, Final residual = 3.35179e-08, No Iterations 1
DILUPBiCGStab:  Solving for CO2, Initial residual = 0.24291, Final residual = 3.05248e-08, No Iterations 1
DILUPBiCGStab:  Solving for H2O, Initial residual = 0.24291, Final residual = 3.05248e-08, No Iterations 1
DILUPBiCGStab:  Solving for h, Initial residual = 0.344746, Final residual = 5.26589e-08, No Iterations 1
min/max(T) = 778.904, 800
GAMG:  Solving for p, Initial residual = 0.464337, Final residual = 0.0216329, No Iterations 2
diagonal:  Solving for rho, Initial residual = 0, Final residual = 0, No Iterations 0
time step continuity errors : sum local = 1.66088e-08, global = -3.69475e-09, cumulative = -4.97358e-09
GAMG:  Solving for p, Initial residual = 0.0156289, Final residual = 5.08198e-07, No Iterations 8
diagonal:  Solving for rho, Initial residual = 0, Final residual = 0, No Iterations 0
time step continuity errors : sum local = 6.70309e-13, global = -1.21746e-15, cumulative = -4.97358e-09
smoothSolver:  Solving for epsilon, Initial residual = 0.00146723, Final residual = 6.67299e-07, No Iterations 1
smoothSolver:  Solving for k, Initial residual = 0.181315, Final residual = 1.44001e-07, No Iterations 2
ExecutionTime = 26.96 s  ClockTime = 28 s

Courant Number mean: 2.90282e-06 max: 0.0274393
deltaT = 5.04444e-06
Time = 1.97333e-05

diagonal:  Solving for rho, Initial residual = 0, Final residual = 0, No Iterations 0

Solving 3-D cloud cloud

Cloud: cloud injector: model1
    Added 101 new parcels

Cloud: cloud
    Current number of parcels       = 394
    Current mass in system          = 2.10795e-08
    Linear momentum                 = (1.25175e-08 -1.47579e-06 -9.47481e-09)
   |Linear momentum|                = 1.47588e-06
    Linear kinetic energy           = 5.96957e-05
    model1:
        number of parcels added     = 394
        mass introduced             = 2.10823e-08
    Parcel fate (number, mass)
      - escape                      = 0, 0
      - stick                       = 0, 0
    Temperature min/max             = 321.657, 409.231
    Mass transfer phase change      = 2.71521e-12
    D10, D32, Dmax (mu)             = 31.6208, 75.2372, 145.076
    Liquid penetration 95% mass (m) = 0.00083578

smoothSolver:  Solving for Ux, Initial residual = 0.286901, Final residual = 4.3725e-07, No Iterations 2
smoothSolver:  Solving for Uy, Initial residual = 0.405765, Final residual = 2.22991e-09, No Iterations 3
smoothSolver:  Solving for Uz, Initial residual = 0.283826, Final residual = 4.2027e-07, No Iterations 2
DILUPBiCGStab:  Solving for C7H16, Initial residual = 0.299814, Final residual = 3.60733e-07, No Iterations 1
DILUPBiCGStab:  Solving for O2, Initial residual = 0.214292, Final residual = 1.67205e-07, No Iterations 1
DILUPBiCGStab:  Solving for CO2, Initial residual = 0.177999, Final residual = 1.39705e-07, No Iterations 1
DILUPBiCGStab:  Solving for H2O, Initial residual = 0.177999, Final residual = 1.39705e-07, No Iterations 1
DILUPBiCGStab:  Solving for h, Initial residual = 0.284107, Final residual = 3.1174e-07, No Iterations 1
min/max(T) = 766.078, 800
GAMG:  Solving for p, Initial residual = 0.341532, Final residual = 0.0190431, No Iterations 2
diagonal:  Solving for rho, Initial residual = 0, Final residual = 0, No Iterations 0
time step continuity errors : sum local = 4.27763e-08, global = -1.00253e-08, cumulative = -1.49989e-08
GAMG:  Solving for p, Initial residual = 0.0156351, Final residual = 5.54888e-07, No Iterations 8
diagonal:  Solving for rho, Initial residual = 0, Final residual = 0, No Iterations 0
time step continuity errors : sum local = 1.88832e-12, global = -3.21796e-14, cumulative = -1.49989e-08
smoothSolver:  Solving for epsilon, Initial residual = 0.001571, Final residual = 8.84501e-07, No Iterations 1
smoothSolver:  Solving for k, Initial residual = 0.149043, Final residual = 2.04307e-07, No Iterations 2
ExecutionTime = 31.91 s  ClockTime = 33 s

Courant Number mean: 8.18502e-06 max: 0.0844137
deltaT = 5.04444e-06
Time = 2.47778e-05

diagonal:  Solving for rho, Initial residual = 0, Final residual = 0, No Iterations 0

Solving 3-D cloud cloud

Cloud: cloud injector: model1
    Added 101 new parcels

Cloud: cloud
    Current number of parcels       = 495
    Current mass in system          = 3.26786e-08
    Linear momentum                 = (5.53079e-10 -2.76604e-06 1.62736e-09)
   |Linear momentum|                = 2.76604e-06
    Linear kinetic energy           = 0.000136651
    model1:
        number of parcels added     = 495
        mass introduced             = 3.26855e-08
    Parcel fate (number, mass)
      - escape                      = 0, 0
      - stick                       = 0, 0
    Temperature min/max             = 321.689, 440.269
    Mass transfer phase change      = 6.86822e-12
    D10, D32, Dmax (mu)             = 22.9354, 70.0248, 143.98
    Liquid penetration 95% mass (m) = 0.00121243

smoothSolver:  Solving for Ux, Initial residual = 0.240326, Final residual = 3.82621e-07, No Iterations 2
smoothSolver:  Solving for Uy, Initial residual = 0.316138, Final residual = 6.77088e-09, No Iterations 3
smoothSolver:  Solving for Uz, Initial residual = 0.239501, Final residual = 4.16764e-07, No Iterations 2
DILUPBiCGStab:  Solving for C7H16, Initial residual = 0.273546, Final residual = 8.66519e-07, No Iterations 1
DILUPBiCGStab:  Solving for O2, Initial residual = 0.266512, Final residual = 6.89216e-07, No Iterations 1
DILUPBiCGStab:  Solving for CO2, Initial residual = 0.254365, Final residual = 5.46021e-07, No Iterations 1
DILUPBiCGStab:  Solving for H2O, Initial residual = 0.254365, Final residual = 5.46021e-07, No Iterations 1
DILUPBiCGStab:  Solving for h, Initial residual = 0.221643, Final residual = 5.99697e-07, No Iterations 1
min/max(T) = 749.36, 800.007
GAMG:  Solving for p, Initial residual = 0.321692, Final residual = 0.0177349, No Iterations 2
diagonal:  Solving for rho, Initial residual = 0, Final residual = 0, No Iterations 0
time step continuity errors : sum local = 8.44223e-08, global = -1.40309e-08, cumulative = -2.90298e-08
GAMG:  Solving for p, Initial residual = 0.0165692, Final residual = 5.33121e-07, No Iterations 8
diagonal:  Solving for rho, Initial residual = 0, Final residual = 0, No Iterations 0
time step continuity errors : sum local = 3.67729e-12, global = -2.19876e-14, cumulative = -2.90298e-08
smoothSolver:  Solving for epsilon, Initial residual = 0.00152249, Final residual = 9.38003e-07, No Iterations 1
smoothSolver:  Solving for k, Initial residual = 0.126188, Final residual = 3.23843e-07, No Iterations 2
ExecutionTime = 36.84 s  ClockTime = 38 s

Courant Number mean: 1.80337e-05 max: 0.180875
deltaT = 2.52222e-06
Time = 2.73e-05

diagonal:  Solving for rho, Initial residual = 0, Final residual = 0, No Iterations 0

Solving 3-D cloud cloud

Cloud: cloud injector: model1
    Added 51 new parcels

Cloud: cloud
    Current number of parcels       = 546
    Current mass in system          = 3.9425e-08
    Linear momentum                 = (-5.76371e-09 -3.65204e-06 -2.59905e-08)
   |Linear momentum|                = 3.65214e-06
    Linear kinetic energy           = 0.00020006
    model1:
        number of parcels added     = 546
        mass introduced             = 3.94359e-08
    Parcel fate (number, mass)
      - escape                      = 0, 0
      - stick                       = 0, 0
    Temperature min/max             = 320.917, 455.282
    Mass transfer phase change      = 1.08228e-11
    D10, D32, Dmax (mu)             = 20.28, 69.7019, 143.233
    Liquid penetration 95% mass (m) = 0.00140714

smoothSolver:  Solving for Ux, Initial residual = 0.127441, Final residual = 2.8525e-08, No Iterations 2
smoothSolver:  Solving for Uy, Initial residual = 0.130028, Final residual = 3.03566e-09, No Iterations 3
smoothSolver:  Solving for Uz, Initial residual = 0.1286, Final residual = 5.55326e-08, No Iterations 2
DILUPBiCGStab:  Solving for C7H16, Initial residual = 0.123214, Final residual = 3.4343e-07, No Iterations 1
DILUPBiCGStab:  Solving for O2, Initial residual = 0.182561, Final residual = 4.4098e-07, No Iterations 1
DILUPBiCGStab:  Solving for CO2, Initial residual = 0.132189, Final residual = 1.14314e-07, No Iterations 1
DILUPBiCGStab:  Solving for H2O, Initial residual = 0.132189, Final residual = 1.14314e-07, No Iterations 1
DILUPBiCGStab:  Solving for h, Initial residual = 0.0793254, Final residual = 1.46376e-07, No Iterations 1
min/max(T) = 735.88, 800.018
GAMG:  Solving for p, Initial residual = 0.186923, Final residual = 0.00223082, No Iterations 2
diagonal:  Solving for rho, Initial residual = 0, Final residual = 0, No Iterations 0
time step continuity errors : sum local = 1.1305e-08, global = -4.85705e-10, cumulative = -2.95155e-08
GAMG:  Solving for p, Initial residual = 0.00271806, Final residual = 3.91814e-07, No Iterations 5
diagonal:  Solving for rho, Initial residual = 0, Final residual = 0, No Iterations 0
time step continuity errors : sum local = 2.4968e-12, global = 7.46902e-16, cumulative = -2.95155e-08
smoothSolver:  Solving for epsilon, Initial residual = 0.000905786, Final residual = 5.48177e-07, No Iterations 1
smoothSolver:  Solving for k, Initial residual = 0.0798449, Final residual = 3.50634e-07, No Iterations 2
ExecutionTime = 41.62 s  ClockTime = 42 s

Courant Number mean: 1.19244e-05 max: 0.10847
deltaT = 2.27e-06
Time = 2.957e-05

diagonal:  Solving for rho, Initial residual = 0, Final residual = 0, No Iterations 0

Solving 3-D cloud cloud

Cloud: cloud injector: model1
    Added 45 new parcels

Cloud: cloud
    Current number of parcels       = 591
    Current mass in system          = 4.6035e-08
    Linear momentum                 = (-3.1167e-08 -4.55056e-06 -3.74314e-08)
   |Linear momentum|                = 4.55082e-06
    Linear kinetic energy           = 0.000267733
    model1:
        number of parcels added     = 591
        mass introduced             = 4.60521e-08
    Parcel fate (number, mass)
      - escape                      = 0, 0
      - stick                       = 0, 0
    Temperature min/max             = 320.835, 474.157
    Mass transfer phase change      = 1.70812e-11
    D10, D32, Dmax (mu)             = 16.5594, 65.0355, 143.102
    Liquid penetration 95% mass (m) = 0.00159608

smoothSolver:  Solving for Ux, Initial residual = 0.113975, Final residual = 2.25473e-07, No Iterations 2
smoothSolver:  Solving for Uy, Initial residual = 0.119369, Final residual = 5.47676e-08, No Iterations 3
smoothSolver:  Solving for Uz, Initial residual = 0.113384, Final residual = 1.63638e-07, No Iterations 2
DILUPBiCGStab:  Solving for C7H16, Initial residual = 0.125473, Final residual = 1.38897e-09, No Iterations 2
DILUPBiCGStab:  Solving for O2, Initial residual = 0.119819, Final residual = 1.85682e-09, No Iterations 2
DILUPBiCGStab:  Solving for CO2, Initial residual = 0.114932, Final residual = 4.08068e-07, No Iterations 1
DILUPBiCGStab:  Solving for H2O, Initial residual = 0.114932, Final residual = 4.08068e-07, No Iterations 1
DILUPBiCGStab:  Solving for h, Initial residual = 0.0751107, Final residual = 5.12808e-07, No Iterations 1
min/max(T) = 731.396, 800.023
GAMG:  Solving for p, Initial residual = 0.1341, Final residual = 0.00173306, No Iterations 2
diagonal:  Solving for rho, Initial residual = 0, Final residual = 0, No Iterations 0
time step continuity errors : sum local = 1.1502e-08, global = -5.51349e-10, cumulative = -3.00669e-08
GAMG:  Solving for p, Initial residual = 0.00292111, Final residual = 4.17489e-07, No Iterations 5
diagonal:  Solving for rho, Initial residual = 0, Final residual = 0, No Iterations 0
time step continuity errors : sum local = 3.28111e-12, global = 1.43258e-15, cumulative = -3.00669e-08
smoothSolver:  Solving for epsilon, Initial residual = 0.00138036, Final residual = 2.74719e-08, No Iterations 2
smoothSolver:  Solving for k, Initial residual = 0.117583, Final residual = 6.70363e-08, No Iterations 3
ExecutionTime = 46.47 s  ClockTime = 47 s

Courant Number mean: 1.41444e-05 max: 0.11748
deltaT = 1.85727e-06
Time = 3.14273e-05

diagonal:  Solving for rho, Initial residual = 0, Final residual = 0, No Iterations 0

Solving 3-D cloud cloud

Cloud: cloud injector: model1
    Added 37 new parcels

Cloud: cloud
    Current number of parcels       = 628
    Current mass in system          = 5.18204e-08
    Linear momentum                 = (-1.87679e-08 -5.38047e-06 -5.46548e-08)
   |Linear momentum|                = 5.38078e-06
    Linear kinetic energy           = 0.000335091
    model1:
        number of parcels added     = 628
        mass introduced             = 5.18464e-08
    Parcel fate (number, mass)
      - escape                      = 0, 0
      - stick                       = 0, 0
    Temperature min/max             = 320.804, 487.733
    Mass transfer phase change      = 2.6038e-11
    D10, D32, Dmax (mu)             = 13.5005, 62.9458, 142.965
    Liquid penetration 95% mass (m) = 0.00175522

smoothSolver:  Solving for Ux, Initial residual = 0.0990929, Final residual = 4.11974e-07, No Iterations 2
smoothSolver:  Solving for Uy, Initial residual = 0.0991385, Final residual = 2.46521e-07, No Iterations 3
smoothSolver:  Solving for Uz, Initial residual = 0.099039, Final residual = 6.2952e-07, No Iterations 2
DILUPBiCGStab:  Solving for C7H16, Initial residual = 0.117714, Final residual = 1.67471e-08, No Iterations 2
DILUPBiCGStab:  Solving for O2, Initial residual = 0.109252, Final residual = 1.91147e-08, No Iterations 2
DILUPBiCGStab:  Solving for CO2, Initial residual = 0.0948884, Final residual = 8.62984e-09, No Iterations 2
DILUPBiCGStab:  Solving for H2O, Initial residual = 0.0948884, Final residual = 8.62984e-09, No Iterations 2
DILUPBiCGStab:  Solving for h, Initial residual = 0.0828348, Final residual = 1.3212e-08, No Iterations 2
min/max(T) = 735.473, 800.026
GAMG:  Solving for p, Initial residual = 0.134615, Final residual = 0.00973523, No Iterations 1
diagonal:  Solving for rho, Initial residual = 0, Final residual = 0, No Iterations 0
time step continuity errors : sum local = 7.42719e-08, global = 2.783e-09, cumulative = -2.72839e-08
GAMG:  Solving for p, Initial residual = 0.00911472, Final residual = 5.38041e-07, No Iterations 5
diagonal:  Solving for rho, Initial residual = 0, Final residual = 0, No Iterations 0
time step continuity errors : sum local = 4.69008e-12, global = 9.58028e-15, cumulative = -2.72839e-08
smoothSolver:  Solving for epsilon, Initial residual = 0.002107, Final residual = 2.85392e-07, No Iterations 2
smoothSolver:  Solving for k, Initial residual = 0.137472, Final residual = 9.60925e-07, No Iterations 3
ExecutionTime = 51.29 s  ClockTime = 52 s

Courant Number mean: 1.40098e-05 max: 0.0981216
deltaT = 1.85727e-06
Time = 3.32846e-05

diagonal:  Solving for rho, Initial residual = 0, Final residual = 0, No Iterations 0

Solving 3-D cloud cloud

Cloud: cloud injector: model1
    Added 37 new parcels

Cloud: cloud
    Current number of parcels       = 665
    Current mass in system          = 5.79407e-08
    Linear momentum                 = (-1.20168e-08 -6.29347e-06 -4.88187e-08)
   |Linear momentum|                = 6.29367e-06
    Linear kinetic energy           = 0.00041262
    model1:
        number of parcels added     = 665
        mass introduced             = 5.79837e-08
    Parcel fate (number, mass)
      - escape                      = 0, 0
      - stick                       = 0, 0
    Temperature min/max             = 320.75, 502.482
    Mass transfer phase change      = 4.30561e-11
    D10, D32, Dmax (mu)             = 11.5062, 61.0001, 142.796
    Liquid penetration 95% mass (m) = 0.00191722

smoothSolver:  Solving for Ux, Initial residual = 0.0909778, Final residual = 7.05679e-08, No Iterations 3
smoothSolver:  Solving for Uy, Initial residual = 0.108776, Final residual = 3.96386e-08, No Iterations 4
smoothSolver:  Solving for Uz, Initial residual = 0.0907685, Final residual = 7.03148e-08, No Iterations 3
DILUPBiCGStab:  Solving for C7H16, Initial residual = 0.145559, Final residual = 1.00465e-07, No Iterations 2
DILUPBiCGStab:  Solving for O2, Initial residual = 0.107591, Final residual = 8.58523e-08, No Iterations 2
DILUPBiCGStab:  Solving for CO2, Initial residual = 0.0986308, Final residual = 5.30566e-08, No Iterations 2
DILUPBiCGStab:  Solving for H2O, Initial residual = 0.0986308, Final residual = 5.30566e-08, No Iterations 2
DILUPBiCGStab:  Solving for h, Initial residual = 0.0933571, Final residual = 6.32937e-08, No Iterations 2
min/max(T) = 741.974, 800.038
GAMG:  Solving for p, Initial residual = 0.101629, Final residual = 0.00643392, No Iterations 1
diagonal:  Solving for rho, Initial residual = 0, Final residual = 0, No Iterations 0
time step continuity errors : sum local = 5.97559e-08, global = 8.09777e-09, cumulative = -1.91861e-08
GAMG:  Solving for p, Initial residual = 0.00600005, Final residual = 2.80014e-07, No Iterations 5
diagonal:  Solving for rho, Initial residual = 0, Final residual = 0, No Iterations 0
time step continuity errors : sum local = 2.96701e-12, global = 7.52467e-15, cumulative = -1.91861e-08
smoothSolver:  Solving for epsilon, Initial residual = 0.00299322, Final residual = 3.507e-08, No Iterations 3
smoothSolver:  Solving for k, Initial residual = 0.141535, Final residual = 1.96655e-07, No Iterations 4
ExecutionTime = 56.29 s  ClockTime = 57 s

Courant Number mean: 1.69745e-05 max: 0.102964
deltaT = 1.67154e-06
Time = 3.49561e-05

diagonal:  Solving for rho, Initial residual = 0, Final residual = 0, No Iterations 0

Solving 3-D cloud cloud

Cloud: cloud injector: model1
    Added 34 new parcels

Cloud: cloud
    Current number of parcels       = 699
    Current mass in system          = 6.3724e-08
    Linear momentum                 = (-5.48781e-08 -7.18513e-06 -6.45266e-08)
   |Linear momentum|                = 7.18563e-06
    Linear kinetic energy           = 0.000492348
    model1:
        number of parcels added     = 699
        mass introduced             = 6.38006e-08
    Parcel fate (number, mass)
      - escape                      = 0, 0
      - stick                       = 0, 0
    Temperature min/max             = 320.691, 526.864
    Mass transfer phase change      = 7.66066e-11
    D10, D32, Dmax (mu)             = 10.0235, 59.1376, 142.661
    Liquid penetration 95% mass (m) = 0.00206521

smoothSolver:  Solving for Ux, Initial residual = 0.0784715, Final residual = 1.08928e-07, No Iterations 3
smoothSolver:  Solving for Uy, Initial residual = 0.0858861, Final residual = 6.25418e-08, No Iterations 4
smoothSolver:  Solving for Uz, Initial residual = 0.0776529, Final residual = 9.61871e-08, No Iterations 3
DILUPBiCGStab:  Solving for C7H16, Initial residual = 0.169714, Final residual = 2.30429e-07, No Iterations 2
DILUPBiCGStab:  Solving for O2, Initial residual = 0.115501, Final residual = 1.05698e-07, No Iterations 2
DILUPBiCGStab:  Solving for CO2, Initial residual = 0.0902921, Final residual = 7.01584e-08, No Iterations 2
DILUPBiCGStab:  Solving for H2O, Initial residual = 0.0902921, Final residual = 7.01584e-08, No Iterations 2
DILUPBiCGStab:  Solving for h, Initial residual = 0.0688797, Final residual = 7.3869e-08, No Iterations 2
min/max(T) = 744.144, 800.063
GAMG:  Solving for p, Initial residual = 0.0711218, Final residual = 0.00400258, No Iterations 1
diagonal:  Solving for rho, Initial residual = 0, Final residual = 0, No Iterations 0
time step continuity errors : sum local = 4.3173e-08, global = 1.01573e-08, cumulative = -9.02876e-09
GAMG:  Solving for p, Initial residual = 0.0035665, Final residual = 6.37409e-07, No Iterations 4
diagonal:  Solving for rho, Initial residual = 0, Final residual = 0, No Iterations 0
time step continuity errors : sum local = 7.69069e-12, global = 2.47006e-14, cumulative = -9.02874e-09
smoothSolver:  Solving for epsilon, Initial residual = 0.00353201, Final residual = 5.44208e-08, No Iterations 3
smoothSolver:  Solving for k, Initial residual = 0.102524, Final residual = 1.80763e-07, No Iterations 4
ExecutionTime = 61.25 s  ClockTime = 62 s

Courant Number mean: 1.82038e-05 max: 0.0953205
deltaT = 1.67154e-06
Time = 3.66276e-05

diagonal:  Solving for rho, Initial residual = 0, Final residual = 0, No Iterations 0

Solving 3-D cloud cloud

Cloud: cloud injector: model1
    Added 33 new parcels

Cloud: cloud
    Current number of parcels       = 731
    Current mass in system          = 6.96476e-08
    Linear momentum                 = (-2.30071e-08 -8.13406e-06 -6.02552e-08)
   |Linear momentum|                = 8.13431e-06
    Linear kinetic energy           = 0.000579749
    model1:
        number of parcels added     = 732
        mass introduced             = 6.98952e-08
    Parcel fate (number, mass)
      - escape                      = 0, 0
      - stick                       = 0, 0
    Temperature min/max             = 320.876, 540.196
    Mass transfer phase change      = 2.4759e-10
    D10, D32, Dmax (mu)             = 13.5371, 58.9162, 142.498
    Liquid penetration 95% mass (m) = 0.00221294

smoothSolver:  Solving for Ux, Initial residual = 0.0806673, Final residual = 1.11473e-07, No Iterations 3
smoothSolver:  Solving for Uy, Initial residual = 0.0826512, Final residual = 9.54803e-08, No Iterations 4
smoothSolver:  Solving for Uz, Initial residual = 0.0798059, Final residual = 1.35428e-07, No Iterations 3
DILUPBiCGStab:  Solving for C7H16, Initial residual = 0.369806, Final residual = 7.70049e-09, No Iterations 2
DILUPBiCGStab:  Solving for O2, Initial residual = 0.127035, Final residual = 1.86533e-07, No Iterations 2
DILUPBiCGStab:  Solving for CO2, Initial residual = 0.0846339, Final residual = 7.39386e-08, No Iterations 2
DILUPBiCGStab:  Solving for H2O, Initial residual = 0.0846339, Final residual = 7.39386e-08, No Iterations 2
DILUPBiCGStab:  Solving for h, Initial residual = 0.0673387, Final residual = 6.35484e-08, No Iterations 2
min/max(T) = 743.517, 800.08
GAMG:  Solving for p, Initial residual = 0.0797426, Final residual = 0.00472984, No Iterations 1
diagonal:  Solving for rho, Initial residual = 0, Final residual = 0, No Iterations 0
time step continuity errors : sum local = 6.11015e-08, global = 6.84307e-09, cumulative = -2.18567e-09
GAMG:  Solving for p, Initial residual = 0.00473884, Final residual = 7.98313e-07, No Iterations 4
diagonal:  Solving for rho, Initial residual = 0, Final residual = 0, No Iterations 0
time step continuity errors : sum local = 1.1627e-11, global = 5.63618e-14, cumulative = -2.18561e-09
smoothSolver:  Solving for epsilon, Initial residual = 0.0046029, Final residual = 9.09303e-08, No Iterations 3
smoothSolver:  Solving for k, Initial residual = 0.0857009, Final residual = 1.90101e-07, No Iterations 4
ExecutionTime = 66.28 s  ClockTime = 67 s

Courant Number mean: 2.19516e-05 max: 0.104881
deltaT = 1.48582e-06
Time = 3.81135e-05

diagonal:  Solving for rho, Initial residual = 0, Final residual = 0, No Iterations 0

Solving 3-D cloud cloud

Cloud: cloud injector: model1
    Added 30 new parcels

Cloud: cloud
    Current number of parcels       = 759
    Current mass in system          = 7.51122e-08
    Linear momentum                 = (5.57969e-09 -9.02619e-06 -7.42646e-08)
   |Linear momentum|                = 9.0265e-06
    Linear kinetic energy           = 0.000663589
    model1:
        number of parcels added     = 762
        mass introduced             = 7.55459e-08
    Parcel fate (number, mass)
      - escape                      = 0, 0
      - stick                       = 0, 0
    Temperature min/max             = 320.639, 533.194
    Mass transfer phase change      = 4.33688e-10
    D10, D32, Dmax (mu)             = 20.7689, 58.7073, 142.349
    Liquid penetration 95% mass (m) = 0.00235618

smoothSolver:  Solving for Ux, Initial residual = 0.0724245, Final residual = 7.39344e-08, No Iterations 3
smoothSolver:  Solving for Uy, Initial residual = 0.0730632, Final residual = 4.42657e-08, No Iterations 4
smoothSolver:  Solving for Uz, Initial residual = 0.0713694, Final residual = 3.58529e-08, No Iterations 3
DILUPBiCGStab:  Solving for C7H16, Initial residual = 0.159792, Final residual = 1.70835e-07, No Iterations 2
DILUPBiCGStab:  Solving for O2, Initial residual = 0.263352, Final residual = 5.40666e-07, No Iterations 2
DILUPBiCGStab:  Solving for CO2, Initial residual = 0.0807783, Final residual = 3.64259e-08, No Iterations 2
DILUPBiCGStab:  Solving for H2O, Initial residual = 0.0807783, Final residual = 3.64259e-08, No Iterations 2
DILUPBiCGStab:  Solving for h, Initial residual = 0.0408906, Final residual = 2.76463e-08, No Iterations 2
min/max(T) = 742.419, 800.107
GAMG:  Solving for p, Initial residual = 0.0617029, Final residual = 0.00257694, No Iterations 1
diagonal:  Solving for rho, Initial residual = 0, Final residual = 0, No Iterations 0
time step continuity errors : sum local = 3.8454e-08, global = 8.72378e-09, cumulative = 6.53817e-09
GAMG:  Solving for p, Initial residual = 0.00238052, Final residual = 2.26279e-07, No Iterations 4
diagonal:  Solving for rho, Initial residual = 0, Final residual = 0, No Iterations 0
time step continuity errors : sum local = 3.72763e-12, global = 1.36159e-14, cumulative = 6.53818e-09
smoothSolver:  Solving for epsilon, Initial residual = 0.0052662, Final residual = 6.48855e-08, No Iterations 3
smoothSolver:  Solving for k, Initial residual = 0.0670008, Final residual = 7.68312e-08, No Iterations 4
ExecutionTime = 71.23 s  ClockTime = 72 s

Courant Number mean: 2.29568e-05 max: 0.0984395
deltaT = 1.48582e-06
Time = 3.95993e-05

diagonal:  Solving for rho, Initial residual = 0, Final residual = 0, No Iterations 0

Solving 3-D cloud cloud

Cloud: cloud injector: model1
    Added 29 new parcels

Cloud: cloud
    Current number of parcels       = 788
    Current mass in system          = 8.09678e-08
    Linear momentum                 = (-8.86493e-09 -9.97479e-06 -1.03902e-07)
   |Linear momentum|                = 9.97534e-06
    Linear kinetic energy           = 0.000755033
    model1:
        number of parcels added     = 791
        mass introduced             = 8.14161e-08
    Parcel fate (number, mass)
      - escape                      = 0, 0
      - stick                       = 0, 0
    Temperature min/max             = 320.741, 538.93
    Mass transfer phase change      = 4.48356e-10
    D10, D32, Dmax (mu)             = 19.3197, 56.2366, 142.012
    Liquid penetration 95% mass (m) = 0.00249451

smoothSolver:  Solving for Ux, Initial residual = 0.0722775, Final residual = 7.36552e-08, No Iterations 3
smoothSolver:  Solving for Uy, Initial residual = 0.0715366, Final residual = 4.53756e-08, No Iterations 4
smoothSolver:  Solving for Uz, Initial residual = 0.0720043, Final residual = 6.89067e-08, No Iterations 3
DILUPBiCGStab:  Solving for C7H16, Initial residual = 0.120614, Final residual = 1.85348e-07, No Iterations 2
DILUPBiCGStab:  Solving for O2, Initial residual = 0.142709, Final residual = 1.69644e-07, No Iterations 2
DILUPBiCGStab:  Solving for CO2, Initial residual = 0.0786824, Final residual = 3.36696e-08, No Iterations 2
DILUPBiCGStab:  Solving for H2O, Initial residual = 0.0786824, Final residual = 3.36696e-08, No Iterations 2
DILUPBiCGStab:  Solving for h, Initial residual = 0.0455059, Final residual = 2.80354e-08, No Iterations 2
min/max(T) = 745.155, 800.156
GAMG:  Solving for p, Initial residual = 0.0525813, Final residual = 0.00182268, No Iterations 1
diagonal:  Solving for rho, Initial residual = 0, Final residual = 0, No Iterations 0
time step continuity errors : sum local = 3.11655e-08, global = 1.00272e-08, cumulative = 1.65654e-08
GAMG:  Solving for p, Initial residual = 0.00170513, Final residual = 1.14211e-07, No Iterations 4
diagonal:  Solving for rho, Initial residual = 0, Final residual = 0, No Iterations 0
time step continuity errors : sum local = 2.12342e-12, global = -3.37761e-15, cumulative = 1.65653e-08
smoothSolver:  Solving for epsilon, Initial residual = 0.00689579, Final residual = 8.67195e-08, No Iterations 3
smoothSolver:  Solving for k, Initial residual = 0.0634698, Final residual = 7.3145e-08, No Iterations 4
ExecutionTime = 76.23 s  ClockTime = 77 s

Courant Number mean: 2.67705e-05 max: 0.10457
deltaT = 1.30009e-06
Time = 4.08994e-05

diagonal:  Solving for rho, Initial residual = 0, Final residual = 0, No Iterations 0

Solving 3-D cloud cloud

Cloud: cloud injector: model1
    Added 26 new parcels

Cloud: cloud
    Current number of parcels       = 814
    Current mass in system          = 8.62698e-08
    Linear momentum                 = (-6.316e-09 -1.08388e-05 -1.2595e-07)
   |Linear momentum|                = 1.08396e-05
    Linear kinetic energy           = 0.000840709
    model1:
        number of parcels added     = 817
        mass introduced             = 8.67326e-08
    Parcel fate (number, mass)
      - escape                      = 0, 0
      - stick                       = 0, 0
    Temperature min/max             = 320.6, 539.661
    Mass transfer phase change      = 4.62861e-10
    D10, D32, Dmax (mu)             = 17.4397, 53.5447, 141.904
    Liquid penetration 95% mass (m) = 0.00261021

smoothSolver:  Solving for Ux, Initial residual = 0.0616042, Final residual = 3.38099e-08, No Iterations 3
smoothSolver:  Solving for Uy, Initial residual = 0.0630852, Final residual = 6.41946e-07, No Iterations 3
smoothSolver:  Solving for Uz, Initial residual = 0.0610036, Final residual = 3.31457e-08, No Iterations 3
DILUPBiCGStab:  Solving for C7H16, Initial residual = 0.0652761, Final residual = 5.9042e-08, No Iterations 2
DILUPBiCGStab:  Solving for O2, Initial residual = 0.096279, Final residual = 7.23627e-08, No Iterations 2
DILUPBiCGStab:  Solving for CO2, Initial residual = 0.061801, Final residual = 1.50599e-08, No Iterations 2
DILUPBiCGStab:  Solving for H2O, Initial residual = 0.061801, Final residual = 1.50599e-08, No Iterations 2
DILUPBiCGStab:  Solving for h, Initial residual = 0.0354263, Final residual = 1.26231e-08, No Iterations 2
min/max(T) = 747.075, 800.199
GAMG:  Solving for p, Initial residual = 0.0472185, Final residual = 0.0015347, No Iterations 1
diagonal:  Solving for rho, Initial residual = 0, Final residual = 0, No Iterations 0
time step continuity errors : sum local = 2.89941e-08, global = 1.16876e-09, cumulative = 1.77341e-08
GAMG:  Solving for p, Initial residual = 0.00163614, Final residual = 7.60611e-07, No Iterations 3
diagonal:  Solving for rho, Initial residual = 0, Final residual = 0, No Iterations 0
time step continuity errors : sum local = 1.54307e-11, global = 7.9746e-14, cumulative = 1.77342e-08
smoothSolver:  Solving for epsilon, Initial residual = 0.00808309, Final residual = 5.76133e-08, No Iterations 3
smoothSolver:  Solving for k, Initial residual = 0.054563, Final residual = 9.45429e-07, No Iterations 3
ExecutionTime = 81.2 s  ClockTime = 82 s

Courant Number mean: 2.67595e-05 max: 0.0974842
deltaT = 1.30009e-06
Time = 4.21995e-05

diagonal:  Solving for rho, Initial residual = 0, Final residual = 0, No Iterations 0

Solving 3-D cloud cloud

Cloud: cloud injector: model1
    Added 26 new parcels

Cloud: cloud
    Current number of parcels       = 840
    Current mass in system          = 9.1726e-08
    Linear momentum                 = (8.69934e-10 -1.17498e-05 -1.24326e-07)
   |Linear momentum|                = 1.17505e-05
    Linear kinetic energy           = 0.000934874
    model1:
        number of parcels added     = 843
        mass introduced             = 9.22108e-08
    Parcel fate (number, mass)
      - escape                      = 0, 0
      - stick                       = 0, 0
    Temperature min/max             = 320.561, 540.162
    Mass transfer phase change      = 4.84846e-10
    D10, D32, Dmax (mu)             = 15.3364, 51.6699, 141.601
    Liquid penetration 95% mass (m) = 0.00272117

smoothSolver:  Solving for Ux, Initial residual = 0.060442, Final residual = 3.86051e-08, No Iterations 3
smoothSolver:  Solving for Uy, Initial residual = 0.0604515, Final residual = 6.20012e-07, No Iterations 3
smoothSolver:  Solving for Uz, Initial residual = 0.059334, Final residual = 9.55892e-07, No Iterations 2
DILUPBiCGStab:  Solving for C7H16, Initial residual = 0.0489887, Final residual = 3.97529e-08, No Iterations 2
DILUPBiCGStab:  Solving for O2, Initial residual = 0.0658471, Final residual = 4.74e-08, No Iterations 2
DILUPBiCGStab:  Solving for CO2, Initial residual = 0.0550518, Final residual = 1.40966e-08, No Iterations 2
DILUPBiCGStab:  Solving for H2O, Initial residual = 0.0550518, Final residual = 1.40966e-08, No Iterations 2
DILUPBiCGStab:  Solving for h, Initial residual = 0.034089, Final residual = 1.36394e-08, No Iterations 2
min/max(T) = 745.462, 800.229
GAMG:  Solving for p, Initial residual = 0.0427908, Final residual = 0.001107, No Iterations 1
diagonal:  Solving for rho, Initial residual = 0, Final residual = 0, No Iterations 0
time step continuity errors : sum local = 2.31997e-08, global = 3.17215e-09, cumulative = 2.09063e-08
GAMG:  Solving for p, Initial residual = 0.0011679, Final residual = 4.13534e-07, No Iterations 3
diagonal:  Solving for rho, Initial residual = 0, Final residual = 0, No Iterations 0
time step continuity errors : sum local = 9.25748e-12, global = -3.33978e-14, cumulative = 2.09063e-08
smoothSolver:  Solving for epsilon, Initial residual = 0.0106509, Final residual = 8.27204e-08, No Iterations 3
smoothSolver:  Solving for k, Initial residual = 0.0544366, Final residual = 3.34007e-08, No Iterations 4
ExecutionTime = 86.1 s  ClockTime = 87 s

Courant Number mean: 3.03989e-05 max: 0.101868
deltaT = 1.11436e-06
Time = 4.33138e-05

diagonal:  Solving for rho, Initial residual = 0, Final residual = 0, No Iterations 0

Solving 3-D cloud cloud

Cloud: cloud injector: model1
    Added 23 new parcels

Cloud: cloud
    Current number of parcels       = 863
    Current mass in system          = 9.64798e-08
    Linear momentum                 = (-2.93587e-08 -1.25271e-05 -1.0818e-07)
   |Linear momentum|                = 1.25276e-05
    Linear kinetic energy           = 0.00101451
    model1:
        number of parcels added     = 866
        mass introduced             = 9.69912e-08
    Parcel fate (number, mass)
      - escape                      = 0, 0
      - stick                       = 0, 0
    Temperature min/max             = 320.456, 540.199
    Mass transfer phase change      = 5.11417e-10
    D10, D32, Dmax (mu)             = 13.4208, 49.4749, 142.218
    Liquid penetration 95% mass (m) = 0.00281594

smoothSolver:  Solving for Ux, Initial residual = 0.0507449, Final residual = 8.76377e-07, No Iterations 2
smoothSolver:  Solving for Uy, Initial residual = 0.0513915, Final residual = 2.83319e-07, No Iterations 3
smoothSolver:  Solving for Uz, Initial residual = 0.0509248, Final residual = 6.783e-07, No Iterations 2
DILUPBiCGStab:  Solving for C7H16, Initial residual = 0.0341462, Final residual = 1.44827e-08, No Iterations 2
DILUPBiCGStab:  Solving for O2, Initial residual = 0.0426728, Final residual = 1.39636e-08, No Iterations 2
DILUPBiCGStab:  Solving for CO2, Initial residual = 0.0432204, Final residual = 5.81911e-09, No Iterations 2
DILUPBiCGStab:  Solving for H2O, Initial residual = 0.0432204, Final residual = 5.81911e-09, No Iterations 2
DILUPBiCGStab:  Solving for h, Initial residual = 0.0311251, Final residual = 8.20564e-09, No Iterations 2
min/max(T) = 742.682, 800.234
GAMG:  Solving for p, Initial residual = 0.0361955, Final residual = 0.000857955, No Iterations 1
diagonal:  Solving for rho, Initial residual = 0, Final residual = 0, No Iterations 0
time step continuity errors : sum local = 1.93883e-08, global = 3.79862e-09, cumulative = 2.47049e-08
GAMG:  Solving for p, Initial residual = 0.000918683, Final residual = 2.321e-07, No Iterations 3
diagonal:  Solving for rho, Initial residual = 0, Final residual = 0, No Iterations 0
time step continuity errors : sum local = 5.56914e-12, global = -1.04779e-14, cumulative = 2.47049e-08
smoothSolver:  Solving for epsilon, Initial residual = 0.0117143, Final residual = 4.80541e-08, No Iterations 3
smoothSolver:  Solving for k, Initial residual = 0.0459195, Final residual = 4.77495e-07, No Iterations 3
ExecutionTime = 91.03 s  ClockTime = 92 s

Courant Number mean: 2.89227e-05 max: 0.0914117
deltaT = 1.11436e-06
Time = 4.44282e-05

diagonal:  Solving for rho, Initial residual = 0, Final residual = 0, No Iterations 0

Solving 3-D cloud cloud

Cloud: cloud injector: model1
    Added 22 new parcels

Cloud: cloud
    Current number of parcels       = 885
    Current mass in system          = 1.01291e-07
    Linear momentum                 = (-2.5674e-08 -1.33052e-05 -1.06786e-07)
   |Linear momentum|                = 1.33057e-05
    Linear kinetic energy           = 0.00109402
    model1:
        number of parcels added     = 888
        mass introduced             = 1.01839e-07
    Parcel fate (number, mass)
      - escape                      = 0, 0
      - stick                       = 0, 0
    Temperature min/max             = 320.458, 540.2
    Mass transfer phase change      = 5.48732e-10
    D10, D32, Dmax (mu)             = 11.3062, 47.4905, 141.358
    Liquid penetration 95% mass (m) = 0.00290614

smoothSolver:  Solving for Ux, Initial residual = 0.0495709, Final residual = 2.32494e-08, No Iterations 3
smoothSolver:  Solving for Uy, Initial residual = 0.0498938, Final residual = 2.80767e-07, No Iterations 3
smoothSolver:  Solving for Uz, Initial residual = 0.0494961, Final residual = 2.031e-08, No Iterations 3
DILUPBiCGStab:  Solving for C7H16, Initial residual = 0.0283765, Final residual = 9.13612e-07, No Iterations 1
DILUPBiCGStab:  Solving for O2, Initial residual = 0.0361798, Final residual = 1.10214e-08, No Iterations 2
DILUPBiCGStab:  Solving for CO2, Initial residual = 0.0393832, Final residual = 5.67959e-09, No Iterations 2
DILUPBiCGStab:  Solving for H2O, Initial residual = 0.0393832, Final residual = 5.67959e-09, No Iterations 2
DILUPBiCGStab:  Solving for h, Initial residual = 0.0317971, Final residual = 9.16577e-09, No Iterations 2
min/max(T) = 739.011, 800.286
GAMG:  Solving for p, Initial residual = 0.0364143, Final residual = 0.000861902, No Iterations 1
diagonal:  Solving for rho, Initial residual = 0, Final residual = 0, No Iterations 0
time step continuity errors : sum local = 2.1261e-08, global = 4.37368e-09, cumulative = 2.90786e-08
GAMG:  Solving for p, Initial residual = 0.000811197, Final residual = 2.39268e-07, No Iterations 3
diagonal:  Solving for rho, Initial residual = 0, Final residual = 0, No Iterations 0
time step continuity errors : sum local = 6.28297e-12, global = 4.07266e-14, cumulative = 2.90786e-08
smoothSolver:  Solving for epsilon, Initial residual = 0.0142562, Final residual = 6.42852e-08, No Iterations 3
smoothSolver:  Solving for k, Initial residual = 0.0446603, Final residual = 5.06545e-07, No Iterations 3
ExecutionTime = 95.89 s  ClockTime = 97 s

Courant Number mean: 3.20381e-05 max: 0.0957747
deltaT = 1.11436e-06
Time = 4.55425e-05

diagonal:  Solving for rho, Initial residual = 0, Final residual = 0, No Iterations 0

Solving 3-D cloud cloud

Cloud: cloud injector: model1
    Added 22 new parcels

Cloud: cloud
    Current number of parcels       = 907
    Current mass in system          = 1.0615e-07
    Linear momentum                 = (-4.85377e-08 -1.40756e-05 -9.60242e-08)
   |Linear momentum|                = 1.4076e-05
    Linear kinetic energy           = 0.00117197
    model1:
        number of parcels added     = 910
        mass introduced             = 1.06755e-07
    Parcel fate (number, mass)
      - escape                      = 0, 0
      - stick                       = 0, 0
    Temperature min/max             = 320.482, 540.2
    Mass transfer phase change      = 6.05107e-10
    D10, D32, Dmax (mu)             = 9.35401, 45.1915, 140.103
    Liquid penetration 95% mass (m) = 0.00299871

smoothSolver:  Solving for Ux, Initial residual = 0.0485238, Final residual = 2.71229e-08, No Iterations 3
smoothSolver:  Solving for Uy, Initial residual = 0.0486431, Final residual = 2.8621e-07, No Iterations 3
smoothSolver:  Solving for Uz, Initial residual = 0.0484349, Final residual = 2.41206e-08, No Iterations 3
DILUPBiCGStab:  Solving for C7H16, Initial residual = 0.0282706, Final residual = 1.36264e-08, No Iterations 2
DILUPBiCGStab:  Solving for O2, Initial residual = 0.0309194, Final residual = 9.531e-07, No Iterations 1
DILUPBiCGStab:  Solving for CO2, Initial residual = 0.0362769, Final residual = 5.40575e-09, No Iterations 2
DILUPBiCGStab:  Solving for H2O, Initial residual = 0.0362769, Final residual = 5.40575e-09, No Iterations 2
DILUPBiCGStab:  Solving for h, Initial residual = 0.0324894, Final residual = 1.13569e-08, No Iterations 2
min/max(T) = 734.697, 800.312
GAMG:  Solving for p, Initial residual = 0.037162, Final residual = 0.000919743, No Iterations 1
diagonal:  Solving for rho, Initial residual = 0, Final residual = 0, No Iterations 0
time step continuity errors : sum local = 2.48417e-08, global = 5.67116e-09, cumulative = 3.47498e-08
GAMG:  Solving for p, Initial residual = 0.000884112, Final residual = 2.53674e-07, No Iterations 3
diagonal:  Solving for rho, Initial residual = 0, Final residual = 0, No Iterations 0
time step continuity errors : sum local = 7.32056e-12, global = 3.88969e-14, cumulative = 3.47498e-08
smoothSolver:  Solving for epsilon, Initial residual = 0.0169878, Final residual = 8.33365e-08, No Iterations 3
smoothSolver:  Solving for k, Initial residual = 0.043191, Final residual = 5.27157e-07, No Iterations 3
ExecutionTime = 100.81 s  ClockTime = 102 s

Courant Number mean: 3.54342e-05 max: 0.100411
deltaT = 8.9149e-07
Time = 4.6434e-05

diagonal:  Solving for rho, Initial residual = 0, Final residual = 0, No Iterations 0

Solving 3-D cloud cloud

Cloud: cloud injector: model1
    Added 18 new parcels

Cloud: cloud
    Current number of parcels       = 924
    Current mass in system          = 1.10023e-07
    Linear momentum                 = (-4.42359e-08 -1.46887e-05 -8.54376e-08)
   |Linear momentum|                = 1.46891e-05
    Linear kinetic energy           = 0.00123488
    model1:
        number of parcels added     = 928
        mass introduced             = 1.10737e-07
    Parcel fate (number, mass)
      - escape                      = 0, 0
      - stick                       = 0, 0
    Temperature min/max             = 320.36, 540.196
    Mass transfer phase change      = 7.13574e-10
    D10, D32, Dmax (mu)             = 8.24594, 43.6938, 143.2
    Liquid penetration 95% mass (m) = 0.00307134

smoothSolver:  Solving for Ux, Initial residual = 0.0387897, Final residual = 5.57636e-07, No Iterations 2
smoothSolver:  Solving for Uy, Initial residual = 0.0379275, Final residual = 7.58793e-08, No Iterations 3
smoothSolver:  Solving for Uz, Initial residual = 0.0386073, Final residual = 4.84232e-07, No Iterations 2
DILUPBiCGStab:  Solving for C7H16, Initial residual = 0.0444308, Final residual = 1.00325e-08, No Iterations 2
DILUPBiCGStab:  Solving for O2, Initial residual = 0.0269654, Final residual = 8.49345e-07, No Iterations 1
DILUPBiCGStab:  Solving for CO2, Initial residual = 0.0273958, Final residual = 5.69757e-07, No Iterations 1
DILUPBiCGStab:  Solving for H2O, Initial residual = 0.0273958, Final residual = 5.69757e-07, No Iterations 1
DILUPBiCGStab:  Solving for h, Initial residual = 0.0256755, Final residual = 7.82451e-07, No Iterations 1
min/max(T) = 730.805, 800.297
GAMG:  Solving for p, Initial residual = 0.0323551, Final residual = 0.000473272, No Iterations 1
diagonal:  Solving for rho, Initial residual = 0, Final residual = 0, No Iterations 0
time step continuity errors : sum local = 1.38048e-08, global = 1.66662e-09, cumulative = 3.64165e-08
GAMG:  Solving for p, Initial residual = 0.000469764, Final residual = 7.68405e-07, No Iterations 2
diagonal:  Solving for rho, Initial residual = 0, Final residual = 0, No Iterations 0
time step continuity errors : sum local = 2.38027e-11, global = 1.9083e-13, cumulative = 3.64166e-08
smoothSolver:  Solving for epsilon, Initial residual = 0.0156347, Final residual = 2.70296e-08, No Iterations 3
smoothSolver:  Solving for k, Initial residual = 0.0329004, Final residual = 1.43952e-07, No Iterations 3
ExecutionTime = 105.52 s  ClockTime = 106 s

Courant Number mean: 3.06652e-05 max: 0.0834053
deltaT = 8.9149e-07
Time = 4.73255e-05

diagonal:  Solving for rho, Initial residual = 0, Final residual = 0, No Iterations 0

Solving 3-D cloud cloud

Cloud: cloud injector: model1
    Added 18 new parcels

Cloud: cloud
    Current number of parcels       = 942
    Current mass in system          = 1.13932e-07
    Linear momentum                 = (-2.69675e-08 -1.53163e-05 -7.72096e-08)
   |Linear momentum|                = 1.53166e-05
    Linear kinetic energy           = 0.00130047
    model1:
        number of parcels added     = 946
        mass introduced             = 1.14762e-07
    Parcel fate (number, mass)
      - escape                      = 0, 0
      - stick                       = 0, 0
    Temperature min/max             = 320.403, 540.2
    Mass transfer phase change      = 8.2952e-10
    D10, D32, Dmax (mu)             = 7.39871, 42.0882, 138.994
    Liquid penetration 95% mass (m) = 0.00314531

smoothSolver:  Solving for Ux, Initial residual = 0.0390244, Final residual = 5.20314e-07, No Iterations 2
smoothSolver:  Solving for Uy, Initial residual = 0.0361943, Final residual = 6.22084e-08, No Iterations 3
smoothSolver:  Solving for Uz, Initial residual = 0.0390705, Final residual = 5.29421e-07, No Iterations 2
DILUPBiCGStab:  Solving for C7H16, Initial residual = 0.045339, Final residual = 1.4726e-08, No Iterations 2
DILUPBiCGStab:  Solving for O2, Initial residual = 0.0377486, Final residual = 6.98681e-09, No Iterations 2
DILUPBiCGStab:  Solving for CO2, Initial residual = 0.025727, Final residual = 5.48435e-07, No Iterations 1
DILUPBiCGStab:  Solving for H2O, Initial residual = 0.025727, Final residual = 5.48435e-07, No Iterations 1
DILUPBiCGStab:  Solving for h, Initial residual = 0.0262373, Final residual = 5.52271e-07, No Iterations 1
min/max(T) = 725.696, 800.275
GAMG:  Solving for p, Initial residual = 0.03457, Final residual = 0.000451235, No Iterations 1
diagonal:  Solving for rho, Initial residual = 0, Final residual = 0, No Iterations 0
time step continuity errors : sum local = 1.4359e-08, global = 1.08921e-09, cumulative = 3.75059e-08
GAMG:  Solving for p, Initial residual = 0.000607181, Final residual = 6.6679e-07, No Iterations 2
diagonal:  Solving for rho, Initial residual = 0, Final residual = 0, No Iterations 0
time step continuity errors : sum local = 2.25276e-11, global = 2.57912e-13, cumulative = 3.75061e-08
smoothSolver:  Solving for epsilon, Initial residual = 0.0172427, Final residual = 3.08298e-08, No Iterations 3
smoothSolver:  Solving for k, Initial residual = 0.0314909, Final residual = 1.39866e-07, No Iterations 3
ExecutionTime = 110.27 s  ClockTime = 111 s

Courant Number mean: 3.30527e-05 max: 0.0850871
deltaT = 8.9149e-07
Time = 4.8217e-05

diagonal:  Solving for rho, Initial residual = 0, Final residual = 0, No Iterations 0

Solving 3-D cloud cloud

Cloud: cloud injector: model1
    Added 18 new parcels

Cloud: cloud
    Current number of parcels       = 958
    Current mass in system          = 1.17616e-07
    Linear momentum                 = (6.50486e-09 -1.5929e-05 -9.45852e-08)
   |Linear momentum|                = 1.59292e-05
    Linear kinetic energy           = 0.00136488
    model1:
        number of parcels added     = 964
        mass introduced             = 1.1883e-07
    Parcel fate (number, mass)
      - escape                      = 0, 0
      - stick                       = 0, 0
    Temperature min/max             = 320.424, 540.2
    Mass transfer phase change      = 1.2143e-09
    D10, D32, Dmax (mu)             = 10.4161, 43.1638, 141.419
    Liquid penetration 95% mass (m) = 0.00322224

smoothSolver:  Solving for Ux, Initial residual = 0.0390355, Final residual = 3.72413e-07, No Iterations 2
smoothSolver:  Solving for Uy, Initial residual = 0.0363565, Final residual = 7.45513e-08, No Iterations 3
smoothSolver:  Solving for Uz, Initial residual = 0.0387589, Final residual = 4.21324e-07, No Iterations 2
DILUPBiCGStab:  Solving for C7H16, Initial residual = 0.107132, Final residual = 5.76738e-08, No Iterations 2
DILUPBiCGStab:  Solving for O2, Initial residual = 0.0384941, Final residual = 1.08285e-08, No Iterations 2
DILUPBiCGStab:  Solving for CO2, Initial residual = 0.0244741, Final residual = 5.37632e-07, No Iterations 1
DILUPBiCGStab:  Solving for H2O, Initial residual = 0.0244741, Final residual = 5.37632e-07, No Iterations 1
DILUPBiCGStab:  Solving for h, Initial residual = 0.0313896, Final residual = 9.76384e-07, No Iterations 1
min/max(T) = 722.359, 800.315
GAMG:  Solving for p, Initial residual = 0.0371376, Final residual = 0.000800884, No Iterations 1
diagonal:  Solving for rho, Initial residual = 0, Final residual = 0, No Iterations 0
time step continuity errors : sum local = 2.79226e-08, global = -1.31827e-09, cumulative = 3.61878e-08
GAMG:  Solving for p, Initial residual = 0.00108601, Final residual = 1.07464e-07, No Iterations 3
diagonal:  Solving for rho, Initial residual = 0, Final residual = 0, No Iterations 0
time step continuity errors : sum local = 3.97903e-12, global = 4.20368e-14, cumulative = 3.61879e-08
smoothSolver:  Solving for epsilon, Initial residual = 0.0191733, Final residual = 3.49738e-08, No Iterations 3
smoothSolver:  Solving for k, Initial residual = 0.0306406, Final residual = 1.35297e-07, No Iterations 3
ExecutionTime = 115.14 s  ClockTime = 116 s

Courant Number mean: 3.55931e-05 max: 0.0880384
deltaT = 8.9149e-07
Time = 4.91085e-05

diagonal:  Solving for rho, Initial residual = 0, Final residual = 0, No Iterations 0

Solving 3-D cloud cloud

Cloud: cloud injector: model1
    Added 18 new parcels

Cloud: cloud
    Current number of parcels       = 976
    Current mass in system          = 1.21646e-07
    Linear momentum                 = (-4.09549e-08 -1.65628e-05 -7.79229e-08)
   |Linear momentum|                = 1.6563e-05
    Linear kinetic energy           = 0.00143027
    model1:
        number of parcels added     = 982
        mass introduced             = 1.22942e-07
    Parcel fate (number, mass)
      - escape                      = 0, 0
      - stick                       = 0, 0
    Temperature min/max             = 320.38, 540.2
    Mass transfer phase change      = 1.29615e-09
    D10, D32, Dmax (mu)             = 9.85972, 41.9156, 145.077
    Liquid penetration 95% mass (m) = 0.00329331

smoothSolver:  Solving for Ux, Initial residual = 0.03842, Final residual = 3.09868e-07, No Iterations 2
smoothSolver:  Solving for Uy, Initial residual = 0.0350722, Final residual = 4.49238e-08, No Iterations 3
smoothSolver:  Solving for Uz, Initial residual = 0.0381636, Final residual = 2.86621e-07, No Iterations 2
DILUPBiCGStab:  Solving for C7H16, Initial residual = 0.0682937, Final residual = 1.64376e-08, No Iterations 2
DILUPBiCGStab:  Solving for O2, Initial residual = 0.0816179, Final residual = 4.26394e-08, No Iterations 2
DILUPBiCGStab:  Solving for CO2, Initial residual = 0.0234956, Final residual = 5.26104e-07, No Iterations 1
DILUPBiCGStab:  Solving for H2O, Initial residual = 0.0234956, Final residual = 5.26104e-07, No Iterations 1
DILUPBiCGStab:  Solving for h, Initial residual = 0.029661, Final residual = 7.37386e-09, No Iterations 2
min/max(T) = 715.785, 800.341
GAMG:  Solving for p, Initial residual = 0.0341245, Final residual = 0.000554531, No Iterations 1
diagonal:  Solving for rho, Initial residual = 0, Final residual = 0, No Iterations 0
time step continuity errors : sum local = 2.08569e-08, global = 2.0604e-09, cumulative = 3.82483e-08
GAMG:  Solving for p, Initial residual = 0.000776735, Final residual = 7.01461e-08, No Iterations 3
diagonal:  Solving for rho, Initial residual = 0, Final residual = 0, No Iterations 0
time step continuity errors : sum local = 2.77443e-12, global = -3.65595e-14, cumulative = 3.82482e-08
smoothSolver:  Solving for epsilon, Initial residual = 0.0199638, Final residual = 3.60163e-08, No Iterations 3
smoothSolver:  Solving for k, Initial residual = 0.0287368, Final residual = 1.24508e-07, No Iterations 3
ExecutionTime = 120.05 s  ClockTime = 121 s

Courant Number mean: 3.80772e-05 max: 0.0880317
deltaT = 8.9149e-07
Time = 5e-05

diagonal:  Solving for rho, Initial residual = 0, Final residual = 0, No Iterations 0

Solving 3-D cloud cloud

Cloud: cloud injector: model1
    Added 18 new parcels

Cloud: cloud
    Current number of parcels       = 994
    Current mass in system          = 1.25714e-07
    Linear momentum                 = (-2.97875e-08 -1.72043e-05 -2.91363e-08)
   |Linear momentum|                = 1.72043e-05
    Linear kinetic energy           = 0.00149801
    model1:
        number of parcels added     = 1000
        mass introduced             = 1.27097e-07
    Parcel fate (number, mass)
      - escape                      = 0, 0
      - stick                       = 0, 0
    Temperature min/max             = 320.435, 540.2
    Mass transfer phase change      = 1.38324e-09
    D10, D32, Dmax (mu)             = 9.34548, 40.8039, 142.241
    Liquid penetration 95% mass (m) = 0.00336834

smoothSolver:  Solving for Ux, Initial residual = 0.0366643, Final residual = 3.4883e-07, No Iterations 2
smoothSolver:  Solving for Uy, Initial residual = 0.0345756, Final residual = 6.04123e-08, No Iterations 3
smoothSolver:  Solving for Uz, Initial residual = 0.0366615, Final residual = 3.7287e-07, No Iterations 2
DILUPBiCGStab:  Solving for C7H16, Initial residual = 0.0448588, Final residual = 8.57328e-09, No Iterations 2
DILUPBiCGStab:  Solving for O2, Initial residual = 0.0522279, Final residual = 9.46346e-09, No Iterations 2
DILUPBiCGStab:  Solving for CO2, Initial residual = 0.022823, Final residual = 5.39367e-07, No Iterations 1
DILUPBiCGStab:  Solving for H2O, Initial residual = 0.022823, Final residual = 5.39367e-07, No Iterations 1
DILUPBiCGStab:  Solving for h, Initial residual = 0.0248126, Final residual = 4.60733e-07, No Iterations 1
min/max(T) = 714.163, 800.359
GAMG:  Solving for p, Initial residual = 0.0293461, Final residual = 0.000427026, No Iterations 1
diagonal:  Solving for rho, Initial residual = 0, Final residual = 0, No Iterations 0
time step continuity errors : sum local = 1.72556e-08, global = 7.20114e-10, cumulative = 3.89684e-08
GAMG:  Solving for p, Initial residual = 0.000498968, Final residual = 6.98013e-07, No Iterations 2
diagonal:  Solving for rho, Initial residual = 0, Final residual = 0, No Iterations 0
time step continuity errors : sum local = 2.96404e-11, global = 2.51235e-13, cumulative = 3.89686e-08
smoothSolver:  Solving for epsilon, Initial residual = 0.0214145, Final residual = 3.84336e-08, No Iterations 3
smoothSolver:  Solving for k, Initial residual = 0.0278692, Final residual = 1.18995e-07, No Iterations 3
ExecutionTime = 124.94 s  ClockTime = 126 s

Courant Number mean: 4.07465e-05 max: 0.0892811
deltaT = 9.80392e-07
Time = 5.09804e-05

diagonal:  Solving for rho, Initial residual = 0, Final residual = 0, No Iterations 0

Solving 3-D cloud cloud

Cloud: cloud injector: model1
    Added 19 new parcels

Cloud: cloud
    Current number of parcels       = 1012
    Current mass in system          = 1.301e-07
    Linear momentum                 = (-1.31508e-08 -1.79112e-05 -3.76123e-08)
   |Linear momentum|                = 1.79112e-05
    Linear kinetic energy           = 0.00157338
    model1:
        number of parcels added     = 1019
        mass introduced             = 1.31717e-07
    Parcel fate (number, mass)
      - escape                      = 0, 0
      - stick                       = 0, 0
    Temperature min/max             = 320.401, 540.2
    Mass transfer phase change      = 1.61682e-09
    D10, D32, Dmax (mu)             = 9.19748, 40.1588, 144.364
    Liquid penetration 95% mass (m) = 0.00344615

smoothSolver:  Solving for Ux, Initial residual = 0.0380591, Final residual = 2.12702e-07, No Iterations 2
smoothSolver:  Solving for Uy, Initial residual = 0.037511, Final residual = 1.05809e-07, No Iterations 3
smoothSolver:  Solving for Uz, Initial residual = 0.0380873, Final residual = 2.49773e-07, No Iterations 2
DILUPBiCGStab:  Solving for C7H16, Initial residual = 0.0596329, Final residual = 2.63421e-08, No Iterations 2
DILUPBiCGStab:  Solving for O2, Initial residual = 0.0414382, Final residual = 1.11464e-08, No Iterations 2
DILUPBiCGStab:  Solving for CO2, Initial residual = 0.0241351, Final residual = 7.92606e-07, No Iterations 1
DILUPBiCGStab:  Solving for H2O, Initial residual = 0.0241351, Final residual = 7.92606e-07, No Iterations 1
DILUPBiCGStab:  Solving for h, Initial residual = 0.027412, Final residual = 6.67039e-07, No Iterations 1
min/max(T) = 711.094, 800.364
GAMG:  Solving for p, Initial residual = 0.0337583, Final residual = 0.000661587, No Iterations 1
diagonal:  Solving for rho, Initial residual = 0, Final residual = 0, No Iterations 0
time step continuity errors : sum local = 2.88198e-08, global = 7.8691e-10, cumulative = 3.97555e-08
GAMG:  Solving for p, Initial residual = 0.000681527, Final residual = 7.97378e-08, No Iterations 3
diagonal:  Solving for rho, Initial residual = 0, Final residual = 0, No Iterations 0
time step continuity errors : sum local = 3.64536e-12, global = -4.87248e-14, cumulative = 3.97555e-08
smoothSolver:  Solving for epsilon, Initial residual = 0.0248284, Final residual = 7.07306e-08, No Iterations 3
smoothSolver:  Solving for k, Initial residual = 0.0295269, Final residual = 1.937e-07, No Iterations 3
ExecutionTime = 130.07 s  ClockTime = 131 s

Courant Number mean: 4.81895e-05 max: 0.100106
deltaT = 9.61169e-07
Time = 5.19416e-05

diagonal:  Solving for rho, Initial residual = 0, Final residual = 0, No Iterations 0

Solving 3-D cloud cloud

Cloud: cloud injector: model1
    Added 19 new parcels

Cloud: cloud
    Current number of parcels       = 1030
    Current mass in system          = 1.34508e-07
    Linear momentum                 = (-3.57978e-08 -1.8611e-05 5.61824e-09)
   |Linear momentum|                = 1.8611e-05
    Linear kinetic energy           = 0.00164823
    model1:
        number of parcels added     = 1038
        mass introduced             = 1.36297e-07
    Parcel fate (number, mass)
      - escape                      = 0, 0
      - stick                       = 0, 0
    Temperature min/max             = 320.552, 540.2
    Mass transfer phase change      = 1.78839e-09
    D10, D32, Dmax (mu)             = 9.82887, 39.4319, 139.538
    Liquid penetration 95% mass (m) = 0.00351997

smoothSolver:  Solving for Ux, Initial residual = 0.0358703, Final residual = 1.82159e-07, No Iterations 2
smoothSolver:  Solving for Uy, Initial residual = 0.0357688, Final residual = 8.31947e-08, No Iterations 3
smoothSolver:  Solving for Uz, Initial residual = 0.0362377, Final residual = 2.45813e-07, No Iterations 2
DILUPBiCGStab:  Solving for C7H16, Initial residual = 0.0487063, Final residual = 1.05873e-08, No Iterations 2
DILUPBiCGStab:  Solving for O2, Initial residual = 0.0489603, Final residual = 1.82776e-08, No Iterations 2
DILUPBiCGStab:  Solving for CO2, Initial residual = 0.0229796, Final residual = 6.98949e-07, No Iterations 1
DILUPBiCGStab:  Solving for H2O, Initial residual = 0.0229796, Final residual = 6.98949e-07, No Iterations 1
DILUPBiCGStab:  Solving for h, Initial residual = 0.0266699, Final residual = 6.9719e-07, No Iterations 1
min/max(T) = 708.649, 800.384
GAMG:  Solving for p, Initial residual = 0.0336007, Final residual = 0.000752243, No Iterations 1
diagonal:  Solving for rho, Initial residual = 0, Final residual = 0, No Iterations 0
time step continuity errors : sum local = 3.50139e-08, global = 2.70134e-09, cumulative = 4.24568e-08
GAMG:  Solving for p, Initial residual = 0.000838861, Final residual = 1.00594e-07, No Iterations 3
diagonal:  Solving for rho, Initial residual = 0, Final residual = 0, No Iterations 0
time step continuity errors : sum local = 4.92264e-12, global = -1.47163e-14, cumulative = 4.24568e-08
smoothSolver:  Solving for epsilon, Initial residual = 0.0256309, Final residual = 6.50826e-08, No Iterations 3
smoothSolver:  Solving for k, Initial residual = 0.0279301, Final residual = 1.61752e-07, No Iterations 3
ExecutionTime = 134.97 s  ClockTime = 136 s

Courant Number mean: 5.05738e-05 max: 0.0979405
deltaT = 9.80784e-07
Time = 5.29223e-05

diagonal:  Solving for rho, Initial residual = 0, Final residual = 0, No Iterations 0

Solving 3-D cloud cloud

Cloud: cloud injector: model1
    Added 20 new parcels

Cloud: cloud
    Current number of parcels       = 1050
    Current mass in system          = 1.39104e-07
    Linear momentum                 = (1.39547e-08 -1.93312e-05 -3.42405e-09)
   |Linear momentum|                = 1.93312e-05
    Linear kinetic energy           = 0.00172537
    model1:
        number of parcels added     = 1058
        mass introduced             = 1.41022e-07
    Parcel fate (number, mass)
      - escape                      = 0, 0
      - stick                       = 0, 0
    Temperature min/max             = 320.444, 540.2
    Mass transfer phase change      = 1.91808e-09
    D10, D32, Dmax (mu)             = 8.9868, 38.1113, 139.639
    Liquid penetration 95% mass (m) = 0.00361318

smoothSolver:  Solving for Ux, Initial residual = 0.0361472, Final residual = 4.79167e-07, No Iterations 2
smoothSolver:  Solving for Uy, Initial residual = 0.0355193, Final residual = 8.14171e-08, No Iterations 3
smoothSolver:  Solving for Uz, Initial residual = 0.0359418, Final residual = 5.88313e-07, No Iterations 2
DILUPBiCGStab:  Solving for C7H16, Initial residual = 0.0374734, Final residual = 4.82648e-09, No Iterations 2
DILUPBiCGStab:  Solving for O2, Initial residual = 0.0412217, Final residual = 9.59661e-09, No Iterations 2
DILUPBiCGStab:  Solving for CO2, Initial residual = 0.0226917, Final residual = 7.36365e-07, No Iterations 1
DILUPBiCGStab:  Solving for H2O, Initial residual = 0.0226917, Final residual = 7.36365e-07, No Iterations 1
DILUPBiCGStab:  Solving for h, Initial residual = 0.0258597, Final residual = 5.25971e-07, No Iterations 1
min/max(T) = 705.858, 800.381
GAMG:  Solving for p, Initial residual = 0.0313968, Final residual = 0.000720446, No Iterations 1
diagonal:  Solving for rho, Initial residual = 0, Final residual = 0, No Iterations 0
time step continuity errors : sum local = 3.59267e-08, global = 4.84187e-09, cumulative = 4.72987e-08
GAMG:  Solving for p, Initial residual = 0.000719909, Final residual = 1.01322e-07, No Iterations 3
diagonal:  Solving for rho, Initial residual = 0, Final residual = 0, No Iterations 0
time step continuity errors : sum local = 5.30504e-12, global = -1.7132e-14, cumulative = 4.72986e-08
smoothSolver:  Solving for epsilon, Initial residual = 0.0270429, Final residual = 7.38059e-08, No Iterations 3
smoothSolver:  Solving for k, Initial residual = 0.0273269, Final residual = 1.67282e-07, No Iterations 3
ExecutionTime = 139.93 s  ClockTime = 141 s

Courant Number mean: 5.51914e-05 max: 0.101826
deltaT = 9.60768e-07
Time = 5.38831e-05

diagonal:  Solving for rho, Initial residual = 0, Final residual = 0, No Iterations 0

Solving 3-D cloud cloud

Cloud: cloud injector: model1
    Added 19 new parcels

Cloud: cloud
    Current number of parcels       = 1067
    Current mass in system          = 1.43488e-07
    Linear momentum                 = (2.82663e-08 -2.00303e-05 -4.3528e-09)
   |Linear momentum|                = 2.00303e-05
    Linear kinetic energy           = 0.00180137
    model1:
        number of parcels added     = 1077
        mass introduced             = 1.45702e-07
    Parcel fate (number, mass)
      - escape                      = 0, 0
      - stick                       = 0, 0
    Temperature min/max             = 320.431, 540.2
    Mass transfer phase change      = 2.2139e-09
    D10, D32, Dmax (mu)             = 10.6413, 37.9584, 144.458
    Liquid penetration 95% mass (m) = 0.00369906

smoothSolver:  Solving for Ux, Initial residual = 0.0343652, Final residual = 4.98199e-07, No Iterations 2
smoothSolver:  Solving for Uy, Initial residual = 0.0341213, Final residual = 7.89649e-08, No Iterations 3
smoothSolver:  Solving for Uz, Initial residual = 0.0345639, Final residual = 4.84917e-07, No Iterations 2
DILUPBiCGStab:  Solving for C7H16, Initial residual = 0.048476, Final residual = 2.76149e-08, No Iterations 2
DILUPBiCGStab:  Solving for O2, Initial residual = 0.0322044, Final residual = 4.13204e-09, No Iterations 2
DILUPBiCGStab:  Solving for CO2, Initial residual = 0.0215469, Final residual = 6.49203e-07, No Iterations 1
DILUPBiCGStab:  Solving for H2O, Initial residual = 0.0215469, Final residual = 6.49203e-07, No Iterations 1
DILUPBiCGStab:  Solving for h, Initial residual = 0.026102, Final residual = 6.83839e-07, No Iterations 1
min/max(T) = 706.454, 800.421
GAMG:  Solving for p, Initial residual = 0.0302336, Final residual = 0.000560568, No Iterations 1
diagonal:  Solving for rho, Initial residual = 0, Final residual = 0, No Iterations 0
time step continuity errors : sum local = 2.98914e-08, global = 4.76604e-10, cumulative = 4.77753e-08
GAMG:  Solving for p, Initial residual = 0.000650538, Final residual = 6.95964e-08, No Iterations 3
diagonal:  Solving for rho, Initial residual = 0, Final residual = 0, No Iterations 0
time step continuity errors : sum local = 3.89218e-12, global = 6.79706e-14, cumulative = 4.77753e-08
smoothSolver:  Solving for epsilon, Initial residual = 0.027642, Final residual = 6.65523e-08, No Iterations 3
smoothSolver:  Solving for k, Initial residual = 0.0259724, Final residual = 1.38837e-07, No Iterations 3
ExecutionTime = 145.3 s  ClockTime = 146 s

Courant Number mean: 5.76904e-05 max: 0.102294
deltaT = 9.22338e-07
Time = 5.48055e-05

diagonal:  Solving for rho, Initial residual = 0, Final residual = 0, No Iterations 0

Solving 3-D cloud cloud

Cloud: cloud injector: model1
    Added 19 new parcels

Cloud: cloud
    Current number of parcels       = 1085
    Current mass in system          = 1.47866e-07
    Linear momentum                 = (1.57421e-09 -2.07068e-05 5.25707e-09)
   |Linear momentum|                = 2.07068e-05
    Linear kinetic energy           = 0.00187357
    model1:
        number of parcels added     = 1096
        mass introduced             = 1.50242e-07
    Parcel fate (number, mass)
      - escape                      = 0, 0
      - stick                       = 0, 0
    Temperature min/max             = 320.464, 540.2
    Mass transfer phase change      = 2.37619e-09
[...]
time step continuity errors : sum local = 4.71881e-09, global = 6.57906e-11, cumulative = 7.33858e-08
GAMG:  Solving for p, Initial residual = 2.18989e-05, Final residual = 7.5098e-08, No Iterations 1
diagonal:  Solving for rho, Initial residual = 0, Final residual = 0, No Iterations 0
time step continuity errors : sum local = 5.51085e-11, global = 3.46164e-13, cumulative = 7.33861e-08
smoothSolver:  Solving for epsilon, Initial residual = 0.000826754, Final residual = 3.71321e-07, No Iterations 1
smoothSolver:  Solving for k, Initial residual = 0.000917379, Final residual = 5.00173e-07, No Iterations 1
ExecutionTime = 3271.21 s  ClockTime = 3276 s

Courant Number mean: 0.000915293 max: 0.0991396
deltaT = 4.27893e-07
Time = 0.00028374

diagonal:  Solving for rho, Initial residual = 0, Final residual = 0, No Iterations 0

Solving 3-D cloud cloud

Cloud: cloud injector: model1
    Added 8 new parcels

Cloud: cloud
    Current number of parcels       = 2328
    Current mass in system          = 3.96355e-07
    Linear momentum                 = (-6.09887e-08 -6.1373e-05 -8.74395e-08)
   |Linear momentum|                = 6.13731e-05
    Linear kinetic energy           = 0.00592211
    model1:
        number of parcels added     = 5674
        mass introduced             = 1.57393e-06
    Parcel fate (number, mass)
      - escape                      = 0, 0
      - stick                       = 0, 0
    Temperature min/max             = 320.285, 540.2
    Mass transfer phase change      = 1.17757e-06
    D10, D32, Dmax (mu)             = 5.02084, 9.67356, 137.451
    Liquid penetration 95% mass (m) = 0.0150171

smoothSolver:  Solving for Ux, Initial residual = 0.00283051, Final residual = 4.76557e-07, No Iterations 1
smoothSolver:  Solving for Uy, Initial residual = 0.00206573, Final residual = 4.27041e-07, No Iterations 1
smoothSolver:  Solving for Uz, Initial residual = 0.00281626, Final residual = 4.73965e-07, No Iterations 1
DILUPBiCGStab:  Solving for C7H16, Initial residual = 0.00141146, Final residual = 3.50658e-07, No Iterations 1
DILUPBiCGStab:  Solving for O2, Initial residual = 0.00124745, Final residual = 2.85666e-07, No Iterations 1
DILUPBiCGStab:  Solving for CO2, Initial residual = 0.00121516, Final residual = 3.53264e-07, No Iterations 1
DILUPBiCGStab:  Solving for H2O, Initial residual = 0.00121516, Final residual = 3.53264e-07, No Iterations 1
DILUPBiCGStab:  Solving for h, Initial residual = 0.00272994, Final residual = 7.30279e-07, No Iterations 1
min/max(T) = 539.428, 835.799
GAMG:  Solving for p, Initial residual = 0.00865023, Final residual = 6.32247e-06, No Iterations 1
diagonal:  Solving for rho, Initial residual = 0, Final residual = 0, No Iterations 0
time step continuity errors : sum local = 4.6595e-09, global = 3.33795e-11, cumulative = 7.34195e-08
GAMG:  Solving for p, Initial residual = 2.02904e-05, Final residual = 6.3271e-08, No Iterations 1
diagonal:  Solving for rho, Initial residual = 0, Final residual = 0, No Iterations 0
time step continuity errors : sum local = 4.68345e-11, global = 1.33253e-13, cumulative = 7.34196e-08
smoothSolver:  Solving for epsilon, Initial residual = 0.000824795, Final residual = 3.68995e-07, No Iterations 1
smoothSolver:  Solving for k, Initial residual = 0.000915322, Final residual = 4.98713e-07, No Iterations 1
ExecutionTime = 3279.91 s  ClockTime = 3285 s

Courant Number mean: 0.000915947 max: 0.099113
deltaT = 4.27893e-07
Time = 0.000284168

diagonal:  Solving for rho, Initial residual = 0, Final residual = 0, No Iterations 0

Solving 3-D cloud cloud

Cloud: cloud injector: model1
    Added 9 new parcels

Cloud: cloud
    Current number of parcels       = 2322
    Current mass in system          = 3.96192e-07
    Linear momentum                 = (-9.21967e-08 -6.13245e-05 -7.06081e-08)
   |Linear momentum|                = 6.13246e-05
    Linear kinetic energy           = 0.00591299
    model1:
        number of parcels added     = 5683
        mass introduced             = 1.57637e-06
    Parcel fate (number, mass)
      - escape                      = 0, 0
      - stick                       = 0, 0
    Temperature min/max             = 320.28, 540.2
    Mass transfer phase change      = 1.18018e-06
    D10, D32, Dmax (mu)             = 5.04089, 9.67341, 135.332
    Liquid penetration 95% mass (m) = 0.0150375

smoothSolver:  Solving for Ux, Initial residual = 0.00280313, Final residual = 4.77373e-07, No Iterations 1
smoothSolver:  Solving for Uy, Initial residual = 0.00207086, Final residual = 4.28709e-07, No Iterations 1
smoothSolver:  Solving for Uz, Initial residual = 0.00278341, Final residual = 4.6632e-07, No Iterations 1
DILUPBiCGStab:  Solving for C7H16, Initial residual = 0.00140229, Final residual = 3.47144e-07, No Iterations 1
DILUPBiCGStab:  Solving for O2, Initial residual = 0.00124909, Final residual = 2.88163e-07, No Iterations 1
DILUPBiCGStab:  Solving for CO2, Initial residual = 0.00121344, Final residual = 3.525e-07, No Iterations 1
DILUPBiCGStab:  Solving for H2O, Initial residual = 0.00121344, Final residual = 3.525e-07, No Iterations 1
DILUPBiCGStab:  Solving for h, Initial residual = 0.00272853, Final residual = 7.32164e-07, No Iterations 1
min/max(T) = 539.531, 835.92
GAMG:  Solving for p, Initial residual = 0.00855304, Final residual = 5.5331e-06, No Iterations 1
diagonal:  Solving for rho, Initial residual = 0, Final residual = 0, No Iterations 0
time step continuity errors : sum local = 4.11313e-09, global = 3.70207e-11, cumulative = 7.34566e-08
GAMG:  Solving for p, Initial residual = 2.05e-05, Final residual = 7.10261e-08, No Iterations 1
diagonal:  Solving for rho, Initial residual = 0, Final residual = 0, No Iterations 0
time step continuity errors : sum local = 5.30292e-11, global = 4.79867e-13, cumulative = 7.34571e-08
smoothSolver:  Solving for epsilon, Initial residual = 0.000824265, Final residual = 3.67679e-07, No Iterations 1
smoothSolver:  Solving for k, Initial residual = 0.000913487, Final residual = 4.97089e-07, No Iterations 1
ExecutionTime = 3288.96 s  ClockTime = 3294 s

Courant Number mean: 0.000916584 max: 0.0986099
deltaT = 4.27893e-07
Time = 0.000284596

diagonal:  Solving for rho, Initial residual = 0, Final residual = 0, No Iterations 0

Solving 3-D cloud cloud

Cloud: cloud injector: model1
    Added 8 new parcels

Cloud: cloud
    Current number of parcels       = 2317
    Current mass in system          = 3.96033e-07
    Linear momentum                 = (-7.6469e-08 -6.12823e-05 -5.74087e-08)
   |Linear momentum|                = 6.12824e-05
    Linear kinetic energy           = 0.0059053
    model1:
        number of parcels added     = 5691
        mass introduced             = 1.57881e-06
    Parcel fate (number, mass)
      - escape                      = 0, 0
      - stick                       = 0, 0
    Temperature min/max             = 320.277, 540.2
    Mass transfer phase change      = 1.18278e-06
    D10, D32, Dmax (mu)             = 5.05723, 9.6747, 133.184
    Liquid penetration 95% mass (m) = 0.0150426

smoothSolver:  Solving for Ux, Initial residual = 0.00276835, Final residual = 4.75908e-07, No Iterations 1
smoothSolver:  Solving for Uy, Initial residual = 0.00207257, Final residual = 4.2656e-07, No Iterations 1
smoothSolver:  Solving for Uz, Initial residual = 0.00275066, Final residual = 4.65308e-07, No Iterations 1
DILUPBiCGStab:  Solving for C7H16, Initial residual = 0.0014009, Final residual = 3.45617e-07, No Iterations 1
DILUPBiCGStab:  Solving for O2, Initial residual = 0.00124055, Final residual = 2.85494e-07, No Iterations 1
DILUPBiCGStab:  Solving for CO2, Initial residual = 0.00121163, Final residual = 3.51651e-07, No Iterations 1
DILUPBiCGStab:  Solving for H2O, Initial residual = 0.00121163, Final residual = 3.51651e-07, No Iterations 1
DILUPBiCGStab:  Solving for h, Initial residual = 0.00273533, Final residual = 7.29964e-07, No Iterations 1
min/max(T) = 539.638, 836.031
GAMG:  Solving for p, Initial residual = 0.00845342, Final residual = 5.36846e-06, No Iterations 1
diagonal:  Solving for rho, Initial residual = 0, Final residual = 0, No Iterations 0
time step continuity errors : sum local = 4.02552e-09, global = -5.28518e-11, cumulative = 7.34043e-08
GAMG:  Solving for p, Initial residual = 1.99943e-05, Final residual = 6.02333e-08, No Iterations 1
diagonal:  Solving for rho, Initial residual = 0, Final residual = 0, No Iterations 0
time step continuity errors : sum local = 4.53656e-11, global = 4.74361e-13, cumulative = 7.34047e-08
smoothSolver:  Solving for epsilon, Initial residual = 0.000822461, Final residual = 3.67056e-07, No Iterations 1
smoothSolver:  Solving for k, Initial residual = 0.000912033, Final residual = 4.95688e-07, No Iterations 1
ExecutionTime = 3296.61 s  ClockTime = 3301 s

Courant Number mean: 0.000917195 max: 0.0981633
deltaT = 4.27893e-07
Time = 0.000285024

diagonal:  Solving for rho, Initial residual = 0, Final residual = 0, No Iterations 0

Solving 3-D cloud cloud

Cloud: cloud injector: model1
    Added 9 new parcels

Cloud: cloud
    Current number of parcels       = 2305
    Current mass in system          = 3.95837e-07
    Linear momentum                 = (-8.52914e-08 -6.12343e-05 -8.71109e-08)
   |Linear momentum|                = 6.12344e-05
    Linear kinetic energy           = 0.00589764
    model1:
        number of parcels added     = 5700
        mass introduced             = 1.58125e-06
    Parcel fate (number, mass)
      - escape                      = 0, 0
      - stick                       = 0, 0
    Temperature min/max             = 320.238, 540.2
    Mass transfer phase change      = 1.18541e-06
    D10, D32, Dmax (mu)             = 5.1619, 9.68171, 131.798
    Liquid penetration 95% mass (m) = 0.0150559

smoothSolver:  Solving for Ux, Initial residual = 0.00274794, Final residual = 4.75323e-07, No Iterations 1
smoothSolver:  Solving for Uy, Initial residual = 0.00207183, Final residual = 4.23715e-07, No Iterations 1
smoothSolver:  Solving for Uz, Initial residual = 0.00273339, Final residual = 4.65646e-07, No Iterations 1
DILUPBiCGStab:  Solving for C7H16, Initial residual = 0.00139123, Final residual = 3.38913e-07, No Iterations 1
DILUPBiCGStab:  Solving for O2, Initial residual = 0.00123911, Final residual = 2.84387e-07, No Iterations 1
DILUPBiCGStab:  Solving for CO2, Initial residual = 0.00121005, Final residual = 3.5078e-07, No Iterations 1
DILUPBiCGStab:  Solving for H2O, Initial residual = 0.00121005, Final residual = 3.5078e-07, No Iterations 1
DILUPBiCGStab:  Solving for h, Initial residual = 0.00274387, Final residual = 7.31961e-07, No Iterations 1
min/max(T) = 539.745, 836.133
GAMG:  Solving for p, Initial residual = 0.00836713, Final residual = 6.34751e-06, No Iterations 1
diagonal:  Solving for rho, Initial residual = 0, Final residual = 0, No Iterations 0
time step continuity errors : sum local = 4.80128e-09, global = -6.08478e-11, cumulative = 7.33439e-08
GAMG:  Solving for p, Initial residual = 1.91476e-05, Final residual = 6.74839e-08, No Iterations 1
diagonal:  Solving for rho, Initial residual = 0, Final residual = 0, No Iterations 0
time step continuity errors : sum local = 5.12691e-11, global = -2.72348e-14, cumulative = 7.33439e-08
smoothSolver:  Solving for epsilon, Initial residual = 0.000822645, Final residual = 3.68499e-07, No Iterations 1
smoothSolver:  Solving for k, Initial residual = 0.000911019, Final residual = 4.95485e-07, No Iterations 1
ExecutionTime = 3304.75 s  ClockTime = 3309 s

Courant Number mean: 0.000917774 max: 0.0980038
deltaT = 4.27893e-07
Time = 0.000285452

diagonal:  Solving for rho, Initial residual = 0, Final residual = 0, No Iterations 0

Solving 3-D cloud cloud

Cloud: cloud injector: model1
    Added 9 new parcels

Cloud: cloud
    Current number of parcels       = 2306
    Current mass in system          = 3.95668e-07
    Linear momentum                 = (-7.21713e-08 -6.11835e-05 -8.43723e-08)
   |Linear momentum|                = 6.11836e-05
    Linear kinetic energy           = 0.00588819
    model1:
        number of parcels added     = 5709
        mass introduced             = 1.58368e-06
    Parcel fate (number, mass)
      - escape                      = 0, 0
      - stick                       = 0, 0
    Temperature min/max             = 320.275, 540.2
    Mass transfer phase change      = 1.18802e-06
    D10, D32, Dmax (mu)             = 5.17687, 9.67572, 129.501
    Liquid penetration 95% mass (m) = 0.0150593

smoothSolver:  Solving for Ux, Initial residual = 0.00273833, Final residual = 4.73941e-07, No Iterations 1
smoothSolver:  Solving for Uy, Initial residual = 0.00207757, Final residual = 4.26919e-07, No Iterations 1
smoothSolver:  Solving for Uz, Initial residual = 0.00271731, Final residual = 4.66569e-07, No Iterations 1
DILUPBiCGStab:  Solving for C7H16, Initial residual = 0.00139583, Final residual = 3.41727e-07, No Iterations 1
DILUPBiCGStab:  Solving for O2, Initial residual = 0.00123117, Final residual = 2.7905e-07, No Iterations 1
DILUPBiCGStab:  Solving for CO2, Initial residual = 0.00120854, Final residual = 3.49726e-07, No Iterations 1
DILUPBiCGStab:  Solving for H2O, Initial residual = 0.00120854, Final residual = 3.49726e-07, No Iterations 1
DILUPBiCGStab:  Solving for h, Initial residual = 0.00273127, Final residual = 7.30939e-07, No Iterations 1
min/max(T) = 539.854, 836.23
GAMG:  Solving for p, Initial residual = 0.00821966, Final residual = 6.06078e-06, No Iterations 1
diagonal:  Solving for rho, Initial residual = 0, Final residual = 0, No Iterations 0
time step continuity errors : sum local = 4.62392e-09, global = 3.12623e-11, cumulative = 7.33751e-08
GAMG:  Solving for p, Initial residual = 2.02273e-05, Final residual = 7.94377e-08, No Iterations 1
diagonal:  Solving for rho, Initial residual = 0, Final residual = 0, No Iterations 0
time step continuity errors : sum local = 6.08662e-11, global = -3.44409e-13, cumulative = 7.33748e-08
smoothSolver:  Solving for epsilon, Initial residual = 0.000824002, Final residual = 3.70311e-07, No Iterations 1
smoothSolver:  Solving for k, Initial residual = 0.00091068, Final residual = 4.95485e-07, No Iterations 1
ExecutionTime = 3313.1 s  ClockTime = 3318 s

Courant Number mean: 0.000918332 max: 0.0978208
deltaT = 4.27893e-07
Time = 0.00028588

diagonal:  Solving for rho, Initial residual = 0, Final residual = 0, No Iterations 0

Solving 3-D cloud cloud

Cloud: cloud injector: model1
    Added 8 new parcels

Cloud: cloud
    Current number of parcels       = 2300
    Current mass in system          = 3.95435e-07
    Linear momentum                 = (-9.82801e-08 -6.11296e-05 -1.02558e-07)
   |Linear momentum|                = 6.11298e-05
    Linear kinetic energy           = 0.0058793
    model1:
        number of parcels added     = 5717
        mass introduced             = 1.58612e-06
    Parcel fate (number, mass)
      - escape                      = 0, 0
      - stick                       = 0, 0
    Temperature min/max             = 320.229, 540.2
    Mass transfer phase change      = 1.19069e-06
    D10, D32, Dmax (mu)             = 5.19336, 9.67542, 142.813
    Liquid penetration 95% mass (m) = 0.0150754

smoothSolver:  Solving for Ux, Initial residual = 0.00271338, Final residual = 4.6474e-07, No Iterations 1
smoothSolver:  Solving for Uy, Initial residual = 0.00208243, Final residual = 4.22313e-07, No Iterations 1
smoothSolver:  Solving for Uz, Initial residual = 0.00270195, Final residual = 4.63445e-07, No Iterations 1
DILUPBiCGStab:  Solving for C7H16, Initial residual = 0.00139873, Final residual = 3.42506e-07, No Iterations 1
DILUPBiCGStab:  Solving for O2, Initial residual = 0.00123215, Final residual = 2.79685e-07, No Iterations 1
DILUPBiCGStab:  Solving for CO2, Initial residual = 0.00120701, Final residual = 3.48779e-07, No Iterations 1
DILUPBiCGStab:  Solving for H2O, Initial residual = 0.00120701, Final residual = 3.48779e-07, No Iterations 1
DILUPBiCGStab:  Solving for h, Initial residual = 0.00273262, Final residual = 7.26897e-07, No Iterations 1
min/max(T) = 539.965, 836.328
GAMG:  Solving for p, Initial residual = 0.00804656, Final residual = 5.25729e-06, No Iterations 1
diagonal:  Solving for rho, Initial residual = 0, Final residual = 0, No Iterations 0
time step continuity errors : sum local = 4.04525e-09, global = -1.17135e-11, cumulative = 7.33631e-08
GAMG:  Solving for p, Initial residual = 1.78924e-05, Final residual = 5.54087e-08, No Iterations 1
diagonal:  Solving for rho, Initial residual = 0, Final residual = 0, No Iterations 0
time step continuity errors : sum local = 4.28189e-11, global = -3.34971e-13, cumulative = 7.33627e-08
smoothSolver:  Solving for epsilon, Initial residual = 0.000832554, Final residual = 3.76588e-07, No Iterations 1
smoothSolver:  Solving for k, Initial residual = 0.00091361, Final residual = 4.9788e-07, No Iterations 1
ExecutionTime = 3321.16 s  ClockTime = 3326 s

Courant Number mean: 0.000918865 max: 0.0978513
deltaT = 4.27893e-07
Time = 0.000286307

diagonal:  Solving for rho, Initial residual = 0, Final residual = 0, No Iterations 0

Solving 3-D cloud cloud

Cloud: cloud injector: model1
    Added 9 new parcels

Cloud: cloud
    Current number of parcels       = 2300
    Current mass in system          = 3.95231e-07
    Linear momentum                 = (-6.991e-08 -6.10825e-05 -1.28578e-07)
   |Linear momentum|                = 6.10827e-05
    Linear kinetic energy           = 0.00587176
    model1:
        number of parcels added     = 5726
        mass introduced             = 1.58855e-06
    Parcel fate (number, mass)
      - escape                      = 0, 0
      - stick                       = 0, 0
    Temperature min/max             = 320.247, 540.2
    Mass transfer phase change      = 1.19332e-06
    D10, D32, Dmax (mu)             = 5.1882, 9.67057, 142.675
    Liquid penetration 95% mass (m) = 0.0150876

smoothSolver:  Solving for Ux, Initial residual = 0.00269776, Final residual = 4.54844e-07, No Iterations 1
smoothSolver:  Solving for Uy, Initial residual = 0.00209002, Final residual = 4.21302e-07, No Iterations 1
smoothSolver:  Solving for Uz, Initial residual = 0.00269025, Final residual = 4.60135e-07, No Iterations 1
DILUPBiCGStab:  Solving for C7H16, Initial residual = 0.00138583, Final residual = 3.33e-07, No Iterations 1
DILUPBiCGStab:  Solving for O2, Initial residual = 0.00123622, Final residual = 2.81167e-07, No Iterations 1
DILUPBiCGStab:  Solving for CO2, Initial residual = 0.00120565, Final residual = 3.47808e-07, No Iterations 1
DILUPBiCGStab:  Solving for H2O, Initial residual = 0.00120565, Final residual = 3.47808e-07, No Iterations 1
DILUPBiCGStab:  Solving for h, Initial residual = 0.00272587, Final residual = 7.27644e-07, No Iterations 1
min/max(T) = 540.08, 836.435
GAMG:  Solving for p, Initial residual = 0.0079277, Final residual = 5.46567e-06, No Iterations 1
diagonal:  Solving for rho, Initial residual = 0, Final residual = 0, No Iterations 0
time step continuity errors : sum local = 4.2411e-09, global = 2.62204e-11, cumulative = 7.3389e-08
GAMG:  Solving for p, Initial residual = 1.84317e-05, Final residual = 6.38036e-08, No Iterations 1
diagonal:  Solving for rho, Initial residual = 0, Final residual = 0, No Iterations 0
time step continuity errors : sum local = 4.97163e-11, global = -4.20564e-13, cumulative = 7.33885e-08
smoothSolver:  Solving for epsilon, Initial residual = 0.000826044, Final residual = 3.72876e-07, No Iterations 1
smoothSolver:  Solving for k, Initial residual = 0.000911445, Final residual = 4.95298e-07, No Iterations 1
ExecutionTime = 3328.93 s  ClockTime = 3334 s

Courant Number mean: 0.000919373 max: 0.097818
deltaT = 4.27893e-07
Time = 0.000286735

diagonal:  Solving for rho, Initial residual = 0, Final residual = 0, No Iterations 0

Solving 3-D cloud cloud

Cloud: cloud injector: model1
    Added 8 new parcels

