/*---------------------------------------------------------------------------*\
  =========                 |
  \\      /  F ield         | OpenFOAM: The Open Source CFD Toolbox
   \\    /   O peration     | Website:  https://openfoam.org
    \\  /    A nd           | Version:  9
     \\/     M anipulation  |
\*---------------------------------------------------------------------------*/
Build  : 9
Exec   : simpleFoam
Date   : May 07 2022
Time   : 16:44:22
Host   : "GFreya"
PID    : 6243
I/O    : uncollated
Case   : /root/OpenFOAM/root-9/run/tutorials/incompressible/simpleFoam/T3A
nProcs : 1
sigFpe : Enabling floating point exception trapping (FOAM_SIGFPE).
fileModificationChecking : Monitoring run-time modified files using timeStampMaster (fileModificationSkew 10)
allowSystemOperations : Allowing user-supplied system call operations

// * * * * * * * * * * * * * * * * * * * * * * * * * * * * * * * * * * * * * //
Create time

Create mesh for time = 0


SIMPLE: Convergence criteria found
        p: tolerance 1e-05
        U: tolerance 1e-06
        "(k|omega|gammaInt|ReThetat)": tolerance 0.0001

Reading field p

Reading field U

Reading/calculating face flux field phi

Selecting incompressible transport model Newtonian
Selecting turbulence model type RAS
Selecting RAS turbulence model kOmegaSSTLM
Selecting patchDistMethod meshWave
bounding k, min: 0 max: 0.047633 average: 0.047633
RAS
{
    model           kOmegaSSTLM;
    turbulence      on;
    printCoeffs     on;
    alphaK1         0.85;
    alphaK2         1;
    alphaOmega1     0.5;
    alphaOmega2     0.856;
    gamma1          0.555556;
    gamma2          0.44;
    beta1           0.075;
    beta2           0.0828;
    betaStar        0.09;
    a1              0.31;
    b1              1;
    c1              10;
    F3              false;
}

No MRF models present

No fvModels present
No fvConstraints present

Starting time loop

wallShearStress wallShearStress:
    processing all wall patches

Reading set description:
    line

Reading set description:
    line

Time = 1

smoothSolver:  Solving for Ux, Initial residual = 1, Final residual = 0.0711019, No Iterations 5
smoothSolver:  Solving for Uy, Initial residual = 1, Final residual = 0.0991419, No Iterations 3
GAMG:  Solving for p, Initial residual = 1, Final residual = 0.0779311, No Iterations 28
time step continuity errors : sum local = 0.000109245, global = -3.65029e-06, cumulative = -3.65029e-06
smoothSolver:  Solving for ReThetat, Initial residual = 1, Final residual = 0.0326887, No Iterations 1
smoothSolver:  Solving for gammaInt, Initial residual = 1, Final residual = 1.12026, No Iterations 10
smoothSolver:  Solving for omega, Initial residual = 0.0507468, Final residual = 0.00473086, No Iterations 3
smoothSolver:  Solving for k, Initial residual = 1, Final residual = 0.0577874, No Iterations 1
bounding k, min: 0 max: 0.148441 average: 0.0449613
ExecutionTime = 1.98 s  ClockTime = 2 s

Time = 2

smoothSolver:  Solving for Ux, Initial residual = 0.187687, Final residual = 0.013791, No Iterations 2
smoothSolver:  Solving for Uy, Initial residual = 0.0374972, Final residual = 0.00368999, No Iterations 2
GAMG:  Solving for p, Initial residual = 0.00280902, Final residual = 0.000250514, No Iterations 16
time step continuity errors : sum local = 0.00158399, global = 0.000224395, cumulative = 0.000220744
smoothSolver:  Solving for ReThetat, Initial residual = 0.724441, Final residual = 0.0130799, No Iterations 1
smoothSolver:  Solving for gammaInt, Initial residual = 1, Final residual = 0.0180329, No Iterations 1
smoothSolver:  Solving for omega, Initial residual = 0.136689, Final residual = 0.000452319, No Iterations 1
smoothSolver:  Solving for k, Initial residual = 0.301185, Final residual = 0.0277816, No Iterations 1
bounding k, min: 0 max: 0.102479 average: 0.0400596
ExecutionTime = 2.29 s  ClockTime = 3 s

Time = 3

smoothSolver:  Solving for Ux, Initial residual = 0.0324592, Final residual = 0.00308661, No Iterations 3
smoothSolver:  Solving for Uy, Initial residual = 0.0174573, Final residual = 0.000950683, No Iterations 3
GAMG:  Solving for p, Initial residual = 0.00728291, Final residual = 0.000702264, No Iterations 12
time step continuity errors : sum local = 0.00123578, global = 0.000285037, cumulative = 0.000505781
smoothSolver:  Solving for ReThetat, Initial residual = 0.341628, Final residual = 0.00661096, No Iterations 1
smoothSolver:  Solving for gammaInt, Initial residual = 0.0372343, Final residual = 0.00309372, No Iterations 2
smoothSolver:  Solving for omega, Initial residual = 0.00778229, Final residual = 9.80874e-05, No Iterations 1
smoothSolver:  Solving for k, Initial residual = 0.158858, Final residual = 0.00684209, No Iterations 2
bounding k, min: 0 max: 0.0816117 average: 0.036862
ExecutionTime = 2.57 s  ClockTime = 3 s

Time = 4

smoothSolver:  Solving for Ux, Initial residual = 0.0139516, Final residual = 0.00119389, No Iterations 4
smoothSolver:  Solving for Uy, Initial residual = 0.011637, Final residual = 0.000742236, No Iterations 3
GAMG:  Solving for p, Initial residual = 0.0111815, Final residual = 0.00104007, No Iterations 10
time step continuity errors : sum local = 0.00066896, global = 0.000128601, cumulative = 0.000634382
smoothSolver:  Solving for ReThetat, Initial residual = 0.213026, Final residual = 0.00464922, No Iterations 1
smoothSolver:  Solving for gammaInt, Initial residual = 0.0121622, Final residual = 0.000977204, No Iterations 3
smoothSolver:  Solving for omega, Initial residual = 0.00784715, Final residual = 6.50705e-05, No Iterations 1
smoothSolver:  Solving for k, Initial residual = 0.0962939, Final residual = 0.00541213, No Iterations 2
bounding k, min: 0 max: 0.0721388 average: 0.0348493
ExecutionTime = 2.83 s  ClockTime = 3 s

Time = 5

smoothSolver:  Solving for Ux, Initial residual = 0.0087373, Final residual = 0.000550657, No Iterations 5
smoothSolver:  Solving for Uy, Initial residual = 0.0085366, Final residual = 0.000662316, No Iterations 3
GAMG:  Solving for p, Initial residual = 0.016531, Final residual = 0.000889477, No Iterations 8
time step continuity errors : sum local = 0.0003248, global = 5.64097e-05, cumulative = 0.000690792
smoothSolver:  Solving for ReThetat, Initial residual = 0.149759, Final residual = 0.00352407, No Iterations 1
smoothSolver:  Solving for gammaInt, Initial residual = 0.00574767, Final residual = 0.000389912, No Iterations 3
smoothSolver:  Solving for omega, Initial residual = 0.00312764, Final residual = 6.07651e-05, No Iterations 1
smoothSolver:  Solving for k, Initial residual = 0.0665574, Final residual = 0.00466157, No Iterations 2
bounding k, min: 0 max: 0.0744252 average: 0.0333595
ExecutionTime = 3.1 s  ClockTime = 4 s

Time = 6

smoothSolver:  Solving for Ux, Initial residual = 0.00661547, Final residual = 0.00043036, No Iterations 5
smoothSolver:  Solving for Uy, Initial residual = 0.00687889, Final residual = 0.000620727, No Iterations 3
GAMG:  Solving for p, Initial residual = 0.0171032, Final residual = 0.00135389, No Iterations 7
time step continuity errors : sum local = 0.000456167, global = -0.000115586, cumulative = 0.000575206
smoothSolver:  Solving for ReThetat, Initial residual = 0.113206, Final residual = 0.00280489, No Iterations 1
smoothSolver:  Solving for gammaInt, Initial residual = 0.00491292, Final residual = 0.000337774, No Iterations 2
smoothSolver:  Solving for omega, Initial residual = 0.00229884, Final residual = 4.06888e-05, No Iterations 1
smoothSolver:  Solving for k, Initial residual = 0.0490113, Final residual = 0.0041456, No Iterations 2
bounding k, min: 0 max: 0.0780431 average: 0.0322331
ExecutionTime = 3.34 s  ClockTime = 4 s

Time = 7

smoothSolver:  Solving for Ux, Initial residual = 0.00495272, Final residual = 0.000354314, No Iterations 5
smoothSolver:  Solving for Uy, Initial residual = 0.00558339, Final residual = 0.000325872, No Iterations 4
GAMG:  Solving for p, Initial residual = 0.0140111, Final residual = 0.000797052, No Iterations 8
time step continuity errors : sum local = 0.000258586, global = 4.94805e-05, cumulative = 0.000624687
smoothSolver:  Solving for ReThetat, Initial residual = 0.0896861, Final residual = 0.0023118, No Iterations 1
smoothSolver:  Solving for gammaInt, Initial residual = 0.00654281, Final residual = 0.000456297, No Iterations 2
smoothSolver:  Solving for omega, Initial residual = 0.00114474, Final residual = 2.49328e-05, No Iterations 1
smoothSolver:  Solving for k, Initial residual = 0.0378531, Final residual = 0.00372799, No Iterations 2
bounding k, min: 0 max: 0.0814666 average: 0.0313299
ExecutionTime = 3.6 s  ClockTime = 4 s

Time = 8

smoothSolver:  Solving for Ux, Initial residual = 0.00414762, Final residual = 0.000298557, No Iterations 5
smoothSolver:  Solving for Uy, Initial residual = 0.00476439, Final residual = 0.000289191, No Iterations 4
GAMG:  Solving for p, Initial residual = 0.0128523, Final residual = 0.000993675, No Iterations 7
time step continuity errors : sum local = 0.000321357, global = -2.51786e-05, cumulative = 0.000599508
smoothSolver:  Solving for ReThetat, Initial residual = 0.0738307, Final residual = 0.00194723, No Iterations 1
smoothSolver:  Solving for gammaInt, Initial residual = 0.00509217, Final residual = 0.00032964, No Iterations 2
smoothSolver:  Solving for omega, Initial residual = 0.000746898, Final residual = 1.98529e-05, No Iterations 1
smoothSolver:  Solving for k, Initial residual = 0.0302908, Final residual = 0.00199509, No Iterations 3
bounding k, min: 0 max: 0.081831 average: 0.0304992
ExecutionTime = 3.85 s  ClockTime = 4 s

Time = 9

smoothSolver:  Solving for Ux, Initial residual = 0.00353536, Final residual = 0.000258469, No Iterations 5
smoothSolver:  Solving for Uy, Initial residual = 0.00413964, Final residual = 0.000252038, No Iterations 4
GAMG:  Solving for p, Initial residual = 0.0127162, Final residual = 0.000910815, No Iterations 6
time step continuity errors : sum local = 0.000259775, global = 9.48058e-06, cumulative = 0.000608989
smoothSolver:  Solving for ReThetat, Initial residual = 0.0653448, Final residual = 0.00171803, No Iterations 1
smoothSolver:  Solving for gammaInt, Initial residual = 0.00376483, Final residual = 0.000190674, No Iterations 2
smoothSolver:  Solving for omega, Initial residual = 0.000399498, Final residual = 1.03598e-05, No Iterations 1
smoothSolver:  Solving for k, Initial residual = 0.0248263, Final residual = 0.00176569, No Iterations 3
bounding k, min: 0 max: 0.0787242 average: 0.0298032
ExecutionTime = 4.09 s  ClockTime = 5 s

Time = 10

smoothSolver:  Solving for Ux, Initial residual = 0.00294511, Final residual = 0.000224165, No Iterations 5
smoothSolver:  Solving for Uy, Initial residual = 0.00369991, Final residual = 0.000215334, No Iterations 4
GAMG:  Solving for p, Initial residual = 0.0125072, Final residual = 0.00106462, No Iterations 6
time step continuity errors : sum local = 0.000260124, global = -5.06082e-05, cumulative = 0.00055838
smoothSolver:  Solving for ReThetat, Initial residual = 0.0568445, Final residual = 0.00151482, No Iterations 1
smoothSolver:  Solving for gammaInt, Initial residual = 0.00823107, Final residual = 0.000368626, No Iterations 2
smoothSolver:  Solving for omega, Initial residual = 0.000258149, Final residual = 1.04338e-05, No Iterations 1
smoothSolver:  Solving for k, Initial residual = 0.0207055, Final residual = 0.00155987, No Iterations 3
bounding k, min: 0 max: 0.0801375 average: 0.0292055
ExecutionTime = 4.34 s  ClockTime = 5 s

Time = 11

smoothSolver:  Solving for Ux, Initial residual = 0.00261111, Final residual = 0.000200027, No Iterations 5
smoothSolver:  Solving for Uy, Initial residual = 0.00342648, Final residual = 0.000183596, No Iterations 4
GAMG:  Solving for p, Initial residual = 0.014605, Final residual = 0.00138769, No Iterations 5
time step continuity errors : sum local = 0.000259067, global = 1.08706e-05, cumulative = 0.000569251
smoothSolver:  Solving for ReThetat, Initial residual = 0.04897, Final residual = 0.00134222, No Iterations 1
smoothSolver:  Solving for gammaInt, Initial residual = 0.00397341, Final residual = 0.000153484, No Iterations 2
smoothSolver:  Solving for omega, Initial residual = 0.000141212, Final residual = 6.07513e-06, No Iterations 1
smoothSolver:  Solving for k, Initial residual = 0.0175612, Final residual = 0.00135787, No Iterations 3
bounding k, min: 0 max: 0.081953 average: 0.0286849
ExecutionTime = 4.59 s  ClockTime = 5 s

Time = 12

smoothSolver:  Solving for Ux, Initial residual = 0.00224689, Final residual = 0.000177327, No Iterations 5
smoothSolver:  Solving for Uy, Initial residual = 0.00321298, Final residual = 0.000300291, No Iterations 3
GAMG:  Solving for p, Initial residual = 0.0155471, Final residual = 0.00134324, No Iterations 6
time step continuity errors : sum local = 0.000189431, global = -4.30236e-05, cumulative = 0.000526227
smoothSolver:  Solving for ReThetat, Initial residual = 0.0420798, Final residual = 0.00119448, No Iterations 1
smoothSolver:  Solving for gammaInt, Initial residual = 0.00815546, Final residual = 0.000281004, No Iterations 2
smoothSolver:  Solving for omega, Initial residual = 9.6618e-05, Final residual = 6.51328e-06, No Iterations 1
smoothSolver:  Solving for k, Initial residual = 0.0151298, Final residual = 0.00117554, No Iterations 3
bounding k, min: 0 max: 0.0828242 average: 0.028221
ExecutionTime = 4.84 s  ClockTime = 5 s

Time = 13

smoothSolver:  Solving for Ux, Initial residual = 0.00201214, Final residual = 0.000161773, No Iterations 5
smoothSolver:  Solving for Uy, Initial residual = 0.00304639, Final residual = 0.000266281, No Iterations 3
GAMG:  Solving for p, Initial residual = 0.0198447, Final residual = 0.00160951, No Iterations 5
time step continuity errors : sum local = 0.000157348, global = 4.47562e-07, cumulative = 0.000526675
smoothSolver:  Solving for ReThetat, Initial residual = 0.0363765, Final residual = 0.00106972, No Iterations 1
smoothSolver:  Solving for gammaInt, Initial residual = 0.0042136, Final residual = 0.00013518, No Iterations 2
smoothSolver:  Solving for omega, Initial residual = 5.45901e-05, Final residual = 4.46193e-06, No Iterations 1
smoothSolver:  Solving for k, Initial residual = 0.0132178, Final residual = 0.000994636, No Iterations 3
bounding k, min: 0 max: 0.0830429 average: 0.0278047
ExecutionTime = 5.09 s  ClockTime = 6 s

Time = 14

smoothSolver:  Solving for Ux, Initial residual = 0.00180025, Final residual = 0.000145665, No Iterations 5
smoothSolver:  Solving for Uy, Initial residual = 0.00288123, Final residual = 0.00023909, No Iterations 3
GAMG:  Solving for p, Initial residual = 0.0248656, Final residual = 0.00230045, No Iterations 5
time step continuity errors : sum local = 0.00014996, global = 2.67332e-06, cumulative = 0.000529348
smoothSolver:  Solving for ReThetat, Initial residual = 0.0314583, Final residual = 0.000960857, No Iterations 1
smoothSolver:  Solving for gammaInt, Initial residual = 0.00735561, Final residual = 0.000208118, No Iterations 2
smoothSolver:  Solving for omega, Initial residual = 4.13055e-05, Final residual = 1.58675e-06, No Iterations 2
smoothSolver:  Solving for k, Initial residual = 0.0117163, Final residual = 0.000842006, No Iterations 3
bounding k, min: 0 max: 0.082869 average: 0.0274151
ExecutionTime = 5.36 s  ClockTime = 6 s

Time = 15

smoothSolver:  Solving for Ux, Initial residual = 0.00161995, Final residual = 0.000134419, No Iterations 5
smoothSolver:  Solving for Uy, Initial residual = 0.00273166, Final residual = 0.000219064, No Iterations 3
GAMG:  Solving for p, Initial residual = 0.0402452, Final residual = 0.00307459, No Iterations 6
time step continuity errors : sum local = 0.000106573, global = 1.02859e-05, cumulative = 0.000539634
smoothSolver:  Solving for ReThetat, Initial residual = 0.0272211, Final residual = 0.000865259, No Iterations 1
smoothSolver:  Solving for gammaInt, Initial residual = 0.0074027, Final residual = 0.000167163, No Iterations 2
smoothSolver:  Solving for omega, Initial residual = 2.20921e-05, Final residual = 1.09043e-06, No Iterations 2
smoothSolver:  Solving for k, Initial residual = 0.0105026, Final residual = 0.00070007, No Iterations 3
bounding k, min: 0 max: 0.0824944 average: 0.0270472
ExecutionTime = 5.64 s  ClockTime = 6 s

Time = 16

smoothSolver:  Solving for Ux, Initial residual = 0.00148632, Final residual = 0.000122624, No Iterations 5
smoothSolver:  Solving for Uy, Initial residual = 0.00257268, Final residual = 0.000205775, No Iterations 3
GAMG:  Solving for p, Initial residual = 0.0532102, Final residual = 0.00394599, No Iterations 7
time step continuity errors : sum local = 8.99499e-05, global = -2.10695e-05, cumulative = 0.000518565
smoothSolver:  Solving for ReThetat, Initial residual = 0.0235619, Final residual = 0.000778445, No Iterations 1
smoothSolver:  Solving for gammaInt, Initial residual = 0.00793865, Final residual = 0.000211735, No Iterations 2
smoothSolver:  Solving for omega, Initial residual = 1.97755e-05, Final residual = 1.04749e-06, No Iterations 2
smoothSolver:  Solving for k, Initial residual = 0.00947633, Final residual = 0.000570682, No Iterations 3
bounding k, min: 0 max: 0.0816734 average: 0.0267042
ExecutionTime = 5.88 s  ClockTime = 6 s

Time = 17

smoothSolver:  Solving for Ux, Initial residual = 0.00136804, Final residual = 0.000114075, No Iterations 5
smoothSolver:  Solving for Uy, Initial residual = 0.00243893, Final residual = 0.000196924, No Iterations 3
GAMG:  Solving for p, Initial residual = 0.0229297, Final residual = 0.00224155, No Iterations 5
time step continuity errors : sum local = 0.000104711, global = -1.36732e-05, cumulative = 0.000504891
smoothSolver:  Solving for ReThetat, Initial residual = 0.0204855, Final residual = 0.000701718, No Iterations 1
smoothSolver:  Solving for gammaInt, Initial residual = 0.00656944, Final residual = 0.000158219, No Iterations 2
smoothSolver:  Solving for omega, Initial residual = 1.17186e-05, Final residual = 8.89753e-07, No Iterations 2
smoothSolver:  Solving for k, Initial residual = 0.00857896, Final residual = 0.000455182, No Iterations 3
bounding k, min: 0 max: 0.0809682 average: 0.026388
ExecutionTime = 6.15 s  ClockTime = 7 s

Time = 18

smoothSolver:  Solving for Ux, Initial residual = 0.00127502, Final residual = 0.000104927, No Iterations 5
smoothSolver:  Solving for Uy, Initial residual = 0.00228738, Final residual = 0.000190666, No Iterations 3
GAMG:  Solving for p, Initial residual = 0.0152229, Final residual = 0.00112759, No Iterations 7
time step continuity errors : sum local = 7.18623e-05, global = -1.95308e-05, cumulative = 0.000485361
smoothSolver:  Solving for ReThetat, Initial residual = 0.0178248, Final residual = 0.000633811, No Iterations 1
smoothSolver:  Solving for gammaInt, Initial residual = 0.00537778, Final residual = 0.000134367, No Iterations 2
smoothSolver:  Solving for omega, Initial residual = 1.19162e-05, Final residual = 8.3669e-07, No Iterations 2
smoothSolver:  Solving for k, Initial residual = 0.0077914, Final residual = 0.000778771, No Iterations 2
bounding k, min: 0 max: 0.0800973 average: 0.0261326
ExecutionTime = 6.4 s  ClockTime = 7 s

Time = 19

smoothSolver:  Solving for Ux, Initial residual = 0.00117569, Final residual = 9.77692e-05, No Iterations 5
smoothSolver:  Solving for Uy, Initial residual = 0.00215881, Final residual = 0.00018584, No Iterations 3
GAMG:  Solving for p, Initial residual = 0.0105225, Final residual = 0.000864028, No Iterations 5
time step continuity errors : sum local = 6.90201e-05, global = -1.50285e-06, cumulative = 0.000483858
smoothSolver:  Solving for ReThetat, Initial residual = 0.0154759, Final residual = 0.000559387, No Iterations 1
smoothSolver:  Solving for gammaInt, Initial residual = 0.00487553, Final residual = 0.000412221, No Iterations 1
smoothSolver:  Solving for omega, Initial residual = 8.06844e-06, Final residual = 7.42786e-07, No Iterations 2
smoothSolver:  Solving for k, Initial residual = 0.0070842, Final residual = 0.000631014, No Iterations 2
bounding k, min: 0 max: 0.079193 average: 0.0259012
ExecutionTime = 6.65 s  ClockTime = 7 s

Time = 20

smoothSolver:  Solving for Ux, Initial residual = 0.00109743, Final residual = 9.05598e-05, No Iterations 5
smoothSolver:  Solving for Uy, Initial residual = 0.00202665, Final residual = 0.000181053, No Iterations 3
GAMG:  Solving for p, Initial residual = 0.00852578, Final residual = 0.00059327, No Iterations 7
time step continuity errors : sum local = 5.29433e-05, global = -1.26879e-05, cumulative = 0.00047117
smoothSolver:  Solving for ReThetat, Initial residual = 0.0134583, Final residual = 0.00050013, No Iterations 1
smoothSolver:  Solving for gammaInt, Initial residual = 0.00570721, Final residual = 0.000141552, No Iterations 2
smoothSolver:  Solving for omega, Initial residual = 8.48715e-06, Final residual = 6.88016e-07, No Iterations 2
smoothSolver:  Solving for k, Initial residual = 0.00646905, Final residual = 0.000517601, No Iterations 2
bounding k, min: 0 max: 0.0793637 average: 0.0256854
ExecutionTime = 6.93 s  ClockTime = 7 s

Time = 21

smoothSolver:  Solving for Ux, Initial residual = 0.00101682, Final residual = 8.44738e-05, No Iterations 5
smoothSolver:  Solving for Uy, Initial residual = 0.00191591, Final residual = 0.0001755, No Iterations 3
GAMG:  Solving for p, Initial residual = 0.00701951, Final residual = 0.000546721, No Iterations 6
time step continuity errors : sum local = 5.20007e-05, global = -2.9712e-06, cumulative = 0.000468199
smoothSolver:  Solving for ReThetat, Initial residual = 0.0117503, Final residual = 0.000451059, No Iterations 1
smoothSolver:  Solving for gammaInt, Initial residual = 0.0038532, Final residual = 0.00030279, No Iterations 1
smoothSolver:  Solving for omega, Initial residual = 6.45475e-06, Final residual = 6.21984e-07, No Iterations 2
smoothSolver:  Solving for k, Initial residual = 0.00586838, Final residual = 0.000418543, No Iterations 2
bounding k, min: 0 max: 0.0797729 average: 0.025491
ExecutionTime = 7.19 s  ClockTime = 8 s

Time = 22

smoothSolver:  Solving for Ux, Initial residual = 0.000950897, Final residual = 7.86301e-05, No Iterations 5
smoothSolver:  Solving for Uy, Initial residual = 0.00181827, Final residual = 0.000168696, No Iterations 3
GAMG:  Solving for p, Initial residual = 0.00640172, Final residual = 0.000456819, No Iterations 7
time step continuity errors : sum local = 4.38938e-05, global = -1.12016e-05, cumulative = 0.000456997
smoothSolver:  Solving for ReThetat, Initial residual = 0.0102308, Final residual = 0.000408431, No Iterations 1
smoothSolver:  Solving for gammaInt, Initial residual = 0.00389189, Final residual = 0.000313585, No Iterations 1
smoothSolver:  Solving for omega, Initial residual = 6.72746e-06, Final residual = 5.73074e-07, No Iterations 2
smoothSolver:  Solving for k, Initial residual = 0.00531173, Final residual = 0.000341449, No Iterations 2
bounding k, min: 0 max: 0.080133 average: 0.0253164
ExecutionTime = 7.45 s  ClockTime = 8 s

Time = 23

smoothSolver:  Solving for Ux, Initial residual = 0.000887253, Final residual = 7.34819e-05, No Iterations 5
smoothSolver:  Solving for Uy, Initial residual = 0.00173424, Final residual = 0.000160478, No Iterations 3
GAMG:  Solving for p, Initial residual = 0.00601217, Final residual = 0.000440647, No Iterations 8
time step continuity errors : sum local = 4.10675e-05, global = -1.09334e-05, cumulative = 0.000446064
smoothSolver:  Solving for ReThetat, Initial residual = 0.00891646, Final residual = 0.000371012, No Iterations 1
smoothSolver:  Solving for gammaInt, Initial residual = 0.00456759, Final residual = 0.000436707, No Iterations 1
smoothSolver:  Solving for omega, Initial residual = 5.66679e-06, Final residual = 5.22757e-07, No Iterations 2
smoothSolver:  Solving for k, Initial residual = 0.00478989, Final residual = 0.00028271, No Iterations 2
bounding k, min: 0 max: 0.0804103 average: 0.0251596
ExecutionTime = 7.7 s  ClockTime = 8 s

Time = 24

smoothSolver:  Solving for Ux, Initial residual = 0.000833924, Final residual = 6.86184e-05, No Iterations 5
smoothSolver:  Solving for Uy, Initial residual = 0.0016695, Final residual = 0.000151271, No Iterations 3
GAMG:  Solving for p, Initial residual = 0.0061826, Final residual = 0.000545612, No Iterations 8
time step continuity errors : sum local = 4.65016e-05, global = -1.14682e-05, cumulative = 0.000434595
smoothSolver:  Solving for ReThetat, Initial residual = 0.00775241, Final residual = 0.000337605, No Iterations 1
smoothSolver:  Solving for gammaInt, Initial residual = 0.003342, Final residual = 0.000294028, No Iterations 1
smoothSolver:  Solving for omega, Initial residual = 5.61483e-06, Final residual = 4.81505e-07, No Iterations 2
smoothSolver:  Solving for k, Initial residual = 0.00429528, Final residual = 0.000238157, No Iterations 2
bounding k, min: 0 max: 0.0805983 average: 0.0250195
ExecutionTime = 7.96 s  ClockTime = 8 s

Time = 25

smoothSolver:  Solving for Ux, Initial residual = 0.000783453, Final residual = 6.42486e-05, No Iterations 5
smoothSolver:  Solving for Uy, Initial residual = 0.00159751, Final residual = 0.000141171, No Iterations 3
GAMG:  Solving for p, Initial residual = 0.0064913, Final residual = 0.000518656, No Iterations 10
time step continuity errors : sum local = 3.94772e-05, global = -8.39191e-06, cumulative = 0.000426204
smoothSolver:  Solving for ReThetat, Initial residual = 0.00672987, Final residual = 0.000307409, No Iterations 1
smoothSolver:  Solving for gammaInt, Initial residual = 0.00272015, Final residual = 0.00022032, No Iterations 1
smoothSolver:  Solving for omega, Initial residual = 5.01742e-06, Final residual = 4.43229e-07, No Iterations 2
smoothSolver:  Solving for k, Initial residual = 0.00383133, Final residual = 0.000204497, No Iterations 2
bounding k, min: 0 max: 0.0807082 average: 0.0248957
ExecutionTime = 8.23 s  ClockTime = 9 s

Time = 26

smoothSolver:  Solving for Ux, Initial residual = 0.000739361, Final residual = 6.01533e-05, No Iterations 5
smoothSolver:  Solving for Uy, Initial residual = 0.001535, Final residual = 0.000130804, No Iterations 3
GAMG:  Solving for p, Initial residual = 0.00736852, Final residual = 0.000591539, No Iterations 10
time step continuity errors : sum local = 3.76116e-05, global = -9.3282e-06, cumulative = 0.000416875
smoothSolver:  Solving for ReThetat, Initial residual = 0.00583224, Final residual = 0.000280234, No Iterations 1
smoothSolver:  Solving for gammaInt, Initial residual = 0.00223523, Final residual = 0.000157767, No Iterations 1
smoothSolver:  Solving for omega, Initial residual = 4.79236e-06, Final residual = 4.10832e-07, No Iterations 2
smoothSolver:  Solving for k, Initial residual = 0.00339741, Final residual = 0.000179222, No Iterations 2
bounding k, min: 0 max: 0.0807593 average: 0.0247879
ExecutionTime = 8.5 s  ClockTime = 9 s

Time = 27

smoothSolver:  Solving for Ux, Initial residual = 0.000698007, Final residual = 5.64347e-05, No Iterations 5
smoothSolver:  Solving for Uy, Initial residual = 0.00145654, Final residual = 0.000120129, No Iterations 3
GAMG:  Solving for p, Initial residual = 0.00866831, Final residual = 0.000784713, No Iterations 10
time step continuity errors : sum local = 4.04106e-05, global = -1.05349e-05, cumulative = 0.00040634
smoothSolver:  Solving for ReThetat, Initial residual = 0.00505095, Final residual = 0.000255993, No Iterations 1
smoothSolver:  Solving for gammaInt, Initial residual = 0.00203734, Final residual = 0.000129447, No Iterations 1
smoothSolver:  Solving for omega, Initial residual = 4.39027e-06, Final residual = 3.81422e-07, No Iterations 2
smoothSolver:  Solving for k, Initial residual = 0.002996, Final residual = 0.000160494, No Iterations 2
bounding k, min: 0 max: 0.0807718 average: 0.0246953
ExecutionTime = 8.76 s  ClockTime = 9 s

Time = 28

smoothSolver:  Solving for Ux, Initial residual = 0.000660817, Final residual = 5.29561e-05, No Iterations 5
smoothSolver:  Solving for Uy, Initial residual = 0.00138214, Final residual = 0.000109695, No Iterations 3
GAMG:  Solving for p, Initial residual = 0.0112462, Final residual = 0.000968584, No Iterations 10
time step continuity errors : sum local = 3.67274e-05, global = -1.17603e-05, cumulative = 0.00039458
smoothSolver:  Solving for ReThetat, Initial residual = 0.00439092, Final residual = 0.00023556, No Iterations 1
smoothSolver:  Solving for gammaInt, Initial residual = 0.00171705, Final residual = 0.000106141, No Iterations 1
smoothSolver:  Solving for omega, Initial residual = 4.12847e-06, Final residual = 3.55602e-07, No Iterations 2
smoothSolver:  Solving for k, Initial residual = 0.00262863, Final residual = 0.000146493, No Iterations 2
bounding k, min: 0 max: 0.080763 average: 0.0246174
ExecutionTime = 9.03 s  ClockTime = 10 s

Time = 29

smoothSolver:  Solving for Ux, Initial residual = 0.000625131, Final residual = 4.97899e-05, No Iterations 5
smoothSolver:  Solving for Uy, Initial residual = 0.00129947, Final residual = 9.96467e-05, No Iterations 3
GAMG:  Solving for p, Initial residual = 0.016945, Final residual = 0.00157636, No Iterations 10
time step continuity errors : sum local = 3.7703e-05, global = -1.25136e-05, cumulative = 0.000382067
smoothSolver:  Solving for ReThetat, Initial residual = 0.00385023, Final residual = 0.000223813, No Iterations 1
smoothSolver:  Solving for gammaInt, Initial residual = 0.00126835, Final residual = 8.09337e-05, No Iterations 1
smoothSolver:  Solving for omega, Initial residual = 3.81217e-06, Final residual = 3.31917e-07, No Iterations 2
smoothSolver:  Solving for k, Initial residual = 0.0022961, Final residual = 0.000135816, No Iterations 2
bounding k, min: 0 max: 0.0807455 average: 0.0245533
ExecutionTime = 9.29 s  ClockTime = 10 s

Time = 30

smoothSolver:  Solving for Ux, Initial residual = 0.000594018, Final residual = 4.68417e-05, No Iterations 5
smoothSolver:  Solving for Uy, Initial residual = 0.00122427, Final residual = 9.05671e-05, No Iterations 3
GAMG:  Solving for p, Initial residual = 0.0250687, Final residual = 0.00218704, No Iterations 10
time step continuity errors : sum local = 3.38825e-05, global = -1.29609e-05, cumulative = 0.000369106
smoothSolver:  Solving for ReThetat, Initial residual = 0.00340943, Final residual = 0.000215124, No Iterations 1
smoothSolver:  Solving for gammaInt, Initial residual = 0.00079342, Final residual = 5.93026e-05, No Iterations 1
smoothSolver:  Solving for omega, Initial residual = 3.55631e-06, Final residual = 3.10469e-07, No Iterations 2
smoothSolver:  Solving for k, Initial residual = 0.00199823, Final residual = 0.000127711, No Iterations 2
bounding k, min: 0 max: 0.080727 average: 0.0245024
ExecutionTime = 9.55 s  ClockTime = 10 s

Time = 31

smoothSolver:  Solving for Ux, Initial residual = 0.000562477, Final residual = 4.41457e-05, No Iterations 5
smoothSolver:  Solving for Uy, Initial residual = 0.00114492, Final residual = 8.23561e-05, No Iterations 3
GAMG:  Solving for p, Initial residual = 0.0123954, Final residual = 0.00119738, No Iterations 10
time step continuity errors : sum local = 3.54946e-05, global = -1.24499e-05, cumulative = 0.000356656
smoothSolver:  Solving for ReThetat, Initial residual = 0.00305758, Final residual = 0.000207013, No Iterations 1
smoothSolver:  Solving for gammaInt, Initial residual = 0.000783073, Final residual = 5.40147e-05, No Iterations 1
smoothSolver:  Solving for omega, Initial residual = 3.29096e-06, Final residual = 2.90602e-07, No Iterations 2
smoothSolver:  Solving for k, Initial residual = 0.00173461, Final residual = 0.00012218, No Iterations 2
bounding k, min: 0 max: 0.0807118 average: 0.0244637
ExecutionTime = 9.82 s  ClockTime = 10 s

Time = 32

smoothSolver:  Solving for Ux, Initial residual = 0.000535672, Final residual = 4.16652e-05, No Iterations 5
smoothSolver:  Solving for Uy, Initial residual = 0.00107199, Final residual = 7.54691e-05, No Iterations 3
GAMG:  Solving for p, Initial residual = 0.00816748, Final residual = 0.000757064, No Iterations 10
time step continuity errors : sum local = 3.27535e-05, global = -1.16818e-05, cumulative = 0.000344974
smoothSolver:  Solving for ReThetat, Initial residual = 0.00277744, Final residual = 0.000198719, No Iterations 1
smoothSolver:  Solving for gammaInt, Initial residual = 0.000938871, Final residual = 4.05728e-05, No Iterations 1
smoothSolver:  Solving for omega, Initial residual = 3.05677e-06, Final residual = 2.72258e-07, No Iterations 2
smoothSolver:  Solving for k, Initial residual = 0.00150203, Final residual = 0.000117934, No Iterations 2
bounding k, min: 0 max: 0.0807015 average: 0.0244369
ExecutionTime = 10.1 s  ClockTime = 11 s

Time = 33

smoothSolver:  Solving for Ux, Initial residual = 0.000508296, Final residual = 3.94349e-05, No Iterations 5
smoothSolver:  Solving for Uy, Initial residual = 0.000997405, Final residual = 7.01605e-05, No Iterations 3
GAMG:  Solving for p, Initial residual = 0.00590963, Final residual = 0.000585179, No Iterations 10
time step continuity errors : sum local = 3.30226e-05, global = -1.09514e-05, cumulative = 0.000334022
smoothSolver:  Solving for ReThetat, Initial residual = 0.00256475, Final residual = 0.000190218, No Iterations 1
smoothSolver:  Solving for gammaInt, Initial residual = 0.00117159, Final residual = 3.61485e-05, No Iterations 1
smoothSolver:  Solving for omega, Initial residual = 2.82689e-06, Final residual = 2.54935e-07, No Iterations 2
smoothSolver:  Solving for k, Initial residual = 0.00130153, Final residual = 0.000114951, No Iterations 2
bounding k, min: 0 max: 0.080696 average: 0.0244213
ExecutionTime = 10.39 s  ClockTime = 11 s

Time = 34

smoothSolver:  Solving for Ux, Initial residual = 0.000485889, Final residual = 3.73632e-05, No Iterations 5
smoothSolver:  Solving for Uy, Initial residual = 0.000929711, Final residual = 6.62682e-05, No Iterations 3
GAMG:  Solving for p, Initial residual = 0.00466282, Final residual = 0.000428428, No Iterations 10
time step continuity errors : sum local = 2.96002e-05, global = -9.8324e-06, cumulative = 0.00032419
smoothSolver:  Solving for ReThetat, Initial residual = 0.00240548, Final residual = 0.000181826, No Iterations 1
smoothSolver:  Solving for gammaInt, Initial residual = 0.00141098, Final residual = 4.33042e-05, No Iterations 1
smoothSolver:  Solving for omega, Initial residual = 2.61641e-06, Final residual = 2.38518e-07, No Iterations 2
smoothSolver:  Solving for k, Initial residual = 0.00113126, Final residual = 5.72483e-05, No Iterations 3
bounding k, min: 0 max: 0.0806941 average: 0.0244161
ExecutionTime = 10.69 s  ClockTime = 11 s

Time = 35

smoothSolver:  Solving for Ux, Initial residual = 0.000461925, Final residual = 3.5425e-05, No Iterations 5
smoothSolver:  Solving for Uy, Initial residual = 0.000866269, Final residual = 6.34889e-05, No Iterations 3
GAMG:  Solving for p, Initial residual = 0.00378243, Final residual = 0.000356306, No Iterations 10
time step continuity errors : sum local = 2.87853e-05, global = -8.81374e-06, cumulative = 0.000315376
smoothSolver:  Solving for ReThetat, Initial residual = 0.00228898, Final residual = 0.000174927, No Iterations 1
smoothSolver:  Solving for gammaInt, Initial residual = 0.00196808, Final residual = 4.19546e-05, No Iterations 1
smoothSolver:  Solving for omega, Initial residual = 2.41978e-06, Final residual = 2.23014e-07, No Iterations 2
smoothSolver:  Solving for k, Initial residual = 0.000983395, Final residual = 5.65685e-05, No Iterations 3
bounding k, min: 0 max: 0.080696 average: 0.0244231
ExecutionTime = 11.01 s  ClockTime = 12 s

Time = 36

smoothSolver:  Solving for Ux, Initial residual = 0.000441905, Final residual = 3.36528e-05, No Iterations 5
smoothSolver:  Solving for Uy, Initial residual = 0.000808923, Final residual = 6.15613e-05, No Iterations 3
GAMG:  Solving for p, Initial residual = 0.00322948, Final residual = 0.000273498, No Iterations 10
time step continuity errors : sum local = 2.50618e-05, global = -8.02502e-06, cumulative = 0.000307351
smoothSolver:  Solving for ReThetat, Initial residual = 0.00219792, Final residual = 0.000167788, No Iterations 1
smoothSolver:  Solving for gammaInt, Initial residual = 0.00210055, Final residual = 4.13063e-05, No Iterations 1
smoothSolver:  Solving for omega, Initial residual = 2.23081e-06, Final residual = 2.07642e-07, No Iterations 2
smoothSolver:  Solving for k, Initial residual = 0.000863008, Final residual = 5.66275e-05, No Iterations 3
bounding k, min: 0 max: 0.0807009 average: 0.0244416
ExecutionTime = 11.33 s  ClockTime = 12 s

Time = 37

smoothSolver:  Solving for Ux, Initial residual = 0.000420793, Final residual = 3.19612e-05, No Iterations 5
smoothSolver:  Solving for Uy, Initial residual = 0.000758461, Final residual = 6.02645e-05, No Iterations 3
GAMG:  Solving for p, Initial residual = 0.00275189, Final residual = 0.000232202, No Iterations 10
time step continuity errors : sum local = 2.35463e-05, global = -6.74093e-06, cumulative = 0.00030061
smoothSolver:  Solving for ReThetat, Initial residual = 0.00211032, Final residual = 0.000160622, No Iterations 1
smoothSolver:  Solving for gammaInt, Initial residual = 0.00215956, Final residual = 4.69314e-05, No Iterations 1
smoothSolver:  Solving for omega, Initial residual = 2.04838e-06, Final residual = 1.92669e-07, No Iterations 2
smoothSolver:  Solving for k, Initial residual = 0.000791391, Final residual = 5.74923e-05, No Iterations 3
bounding k, min: 0 max: 0.0807083 average: 0.0244712
ExecutionTime = 11.71 s  ClockTime = 12 s

Time = 38

smoothSolver:  Solving for Ux, Initial residual = 0.000402447, Final residual = 3.04052e-05, No Iterations 5
smoothSolver:  Solving for Uy, Initial residual = 0.000714223, Final residual = 5.93662e-05, No Iterations 3
GAMG:  Solving for p, Initial residual = 0.00243916, Final residual = 0.000187215, No Iterations 10
time step continuity errors : sum local = 2.0594e-05, global = -5.61492e-06, cumulative = 0.000294995
smoothSolver:  Solving for ReThetat, Initial residual = 0.00201605, Final residual = 0.000153607, No Iterations 1
smoothSolver:  Solving for gammaInt, Initial residual = 0.00279025, Final residual = 7.59477e-05, No Iterations 1
smoothSolver:  Solving for omega, Initial residual = 1.87604e-06, Final residual = 1.78183e-07, No Iterations 2
smoothSolver:  Solving for k, Initial residual = 0.000757599, Final residual = 5.97118e-05, No Iterations 3
bounding k, min: 0 max: 0.0807173 average: 0.0245126
ExecutionTime = 12.04 s  ClockTime = 13 s

Time = 39

smoothSolver:  Solving for Ux, Initial residual = 0.00038364, Final residual = 2.88879e-05, No Iterations 5
smoothSolver:  Solving for Uy, Initial residual = 0.000678388, Final residual = 5.86505e-05, No Iterations 3
GAMG:  Solving for p, Initial residual = 0.00214039, Final residual = 0.000163688, No Iterations 10
time step continuity errors : sum local = 1.92273e-05, global = -4.67686e-06, cumulative = 0.000290319
smoothSolver:  Solving for ReThetat, Initial residual = 0.001909, Final residual = 0.000147125, No Iterations 1
smoothSolver:  Solving for gammaInt, Initial residual = 0.00530267, Final residual = 0.000188945, No Iterations 1
smoothSolver:  Solving for omega, Initial residual = 1.71072e-06, Final residual = 1.64054e-07, No Iterations 2
smoothSolver:  Solving for k, Initial residual = 0.000773871, Final residual = 6.58675e-05, No Iterations 3
bounding k, min: 0 max: 0.0807274 average: 0.0245688
ExecutionTime = 12.35 s  ClockTime = 13 s

Time = 40

smoothSolver:  Solving for Ux, Initial residual = 0.000366637, Final residual = 2.74741e-05, No Iterations 5
smoothSolver:  Solving for Uy, Initial residual = 0.000647828, Final residual = 5.79335e-05, No Iterations 3
GAMG:  Solving for p, Initial residual = 0.00194364, Final residual = 0.000191526, No Iterations 8
time step continuity errors : sum local = 2.37323e-05, global = -5.73644e-06, cumulative = 0.000284582
smoothSolver:  Solving for ReThetat, Initial residual = 0.0017832, Final residual = 0.000141843, No Iterations 1
smoothSolver:  Solving for gammaInt, Initial residual = 0.00700183, Final residual = 0.000157477, No Iterations 1
smoothSolver:  Solving for omega, Initial residual = 1.5486e-06, Final residual = 1.49476e-07, No Iterations 2
smoothSolver:  Solving for k, Initial residual = 0.000803108, Final residual = 7.22598e-05, No Iterations 3
bounding k, min: 0 max: 0.0807381 average: 0.0246376
ExecutionTime = 12.66 s  ClockTime = 13 s

Time = 41

smoothSolver:  Solving for Ux, Initial residual = 0.000349215, Final residual = 2.60731e-05, No Iterations 5
smoothSolver:  Solving for Uy, Initial residual = 0.000621127, Final residual = 5.69741e-05, No Iterations 3
GAMG:  Solving for p, Initial residual = 0.00176614, Final residual = 0.000142575, No Iterations 10
time step continuity errors : sum local = 1.83657e-05, global = -3.76533e-06, cumulative = 0.000280817
smoothSolver:  Solving for ReThetat, Initial residual = 0.00164076, Final residual = 0.000137738, No Iterations 1
smoothSolver:  Solving for gammaInt, Initial residual = 0.00584315, Final residual = 0.000131566, No Iterations 1
smoothSolver:  Solving for omega, Initial residual = 1.39776e-06, Final residual = 1.34464e-07, No Iterations 2
smoothSolver:  Solving for k, Initial residual = 0.000834484, Final residual = 7.92027e-05, No Iterations 3
bounding k, min: 0 max: 0.0807491 average: 0.0247204
ExecutionTime = 12.92 s  ClockTime = 13 s

Time = 42

smoothSolver:  Solving for Ux, Initial residual = 0.000333401, Final residual = 2.47651e-05, No Iterations 5
smoothSolver:  Solving for Uy, Initial residual = 0.000601565, Final residual = 5.58051e-05, No Iterations 3
GAMG:  Solving for p, Initial residual = 0.0016366, Final residual = 0.000153314, No Iterations 8
time step continuity errors : sum local = 2.05015e-05, global = -4.43039e-06, cumulative = 0.000276386
smoothSolver:  Solving for ReThetat, Initial residual = 0.00148547, Final residual = 0.000134772, No Iterations 1
smoothSolver:  Solving for gammaInt, Initial residual = 0.00513654, Final residual = 0.000103505, No Iterations 1
smoothSolver:  Solving for omega, Initial residual = 1.2584e-06, Final residual = 1.20208e-07, No Iterations 2
smoothSolver:  Solving for k, Initial residual = 0.000864468, Final residual = 8.595e-05, No Iterations 3
bounding k, min: 0 max: 0.0807605 average: 0.0248155
ExecutionTime = 13.19 s  ClockTime = 14 s

Time = 43

smoothSolver:  Solving for Ux, Initial residual = 0.000317254, Final residual = 2.34561e-05, No Iterations 5
smoothSolver:  Solving for Uy, Initial residual = 0.000581656, Final residual = 5.41706e-05, No Iterations 3
GAMG:  Solving for p, Initial residual = 0.00155673, Final residual = 0.000120084, No Iterations 10
time step continuity errors : sum local = 1.64254e-05, global = -3.13028e-06, cumulative = 0.000273256
smoothSolver:  Solving for ReThetat, Initial residual = 0.00132239, Final residual = 6.63491e-05, No Iterations 2
smoothSolver:  Solving for gammaInt, Initial residual = 0.00442087, Final residual = 9.55705e-05, No Iterations 1
smoothSolver:  Solving for omega, Initial residual = 1.13564e-06, Final residual = 1.07323e-07, No Iterations 2
smoothSolver:  Solving for k, Initial residual = 0.00089683, Final residual = 4.7492e-05, No Iterations 4
bounding k, min: 0 max: 0.0807727 average: 0.02493
ExecutionTime = 13.45 s  ClockTime = 14 s

Time = 44

smoothSolver:  Solving for Ux, Initial residual = 0.000302318, Final residual = 2.22331e-05, No Iterations 5
smoothSolver:  Solving for Uy, Initial residual = 0.00056662, Final residual = 5.21907e-05, No Iterations 3
GAMG:  Solving for p, Initial residual = 0.00147953, Final residual = 0.000145375, No Iterations 8
time step continuity errors : sum local = 2.02901e-05, global = -4.26718e-06, cumulative = 0.000268989
smoothSolver:  Solving for ReThetat, Initial residual = 0.00113933, Final residual = 6.26892e-05, No Iterations 2
smoothSolver:  Solving for gammaInt, Initial residual = 0.00808511, Final residual = 0.000261259, No Iterations 1
smoothSolver:  Solving for omega, Initial residual = 1.02612e-06, Final residual = 9.6091e-08, No Iterations 2
smoothSolver:  Solving for k, Initial residual = 0.000993137, Final residual = 5.45316e-05, No Iterations 4
bounding k, min: 0 max: 0.0807855 average: 0.0250647
ExecutionTime = 13.71 s  ClockTime = 14 s

Time = 45

smoothSolver:  Solving for Ux, Initial residual = 0.000287721, Final residual = 2.10135e-05, No Iterations 5
smoothSolver:  Solving for Uy, Initial residual = 0.000549388, Final residual = 4.97305e-05, No Iterations 3
GAMG:  Solving for p, Initial residual = 0.00141922, Final residual = 0.000120526, No Iterations 10
time step continuity errors : sum local = 1.70058e-05, global = -3.14264e-06, cumulative = 0.000265846
smoothSolver:  Solving for ReThetat, Initial residual = 0.000970255, Final residual = 5.95393e-05, No Iterations 2
smoothSolver:  Solving for gammaInt, Initial residual = 0.00994101, Final residual = 0.000190363, No Iterations 1
smoothSolver:  Solving for omega, Initial residual = 9.6088e-07, Final residual = 8.79795e-08, No Iterations 2
smoothSolver:  Solving for k, Initial residual = 0.00107849, Final residual = 6.11982e-05, No Iterations 4
bounding k, min: 0 max: 0.0807989 average: 0.025215
ExecutionTime = 14.11 s  ClockTime = 15 s

Time = 46

smoothSolver:  Solving for Ux, Initial residual = 0.000274034, Final residual = 1.98743e-05, No Iterations 5
smoothSolver:  Solving for Uy, Initial residual = 0.000535455, Final residual = 4.70152e-05, No Iterations 3
GAMG:  Solving for p, Initial residual = 0.00133563, Final residual = 0.000109671, No Iterations 10
time step continuity errors : sum local = 1.56056e-05, global = -2.90945e-06, cumulative = 0.000262937
smoothSolver:  Solving for ReThetat, Initial residual = 0.00082566, Final residual = 5.67458e-05, No Iterations 2
smoothSolver:  Solving for gammaInt, Initial residual = 0.00626342, Final residual = 7.54804e-05, No Iterations 1
smoothSolver:  Solving for omega, Initial residual = 9.00149e-07, Final residual = 8.07989e-08, No Iterations 2
smoothSolver:  Solving for k, Initial residual = 0.00112474, Final residual = 6.66109e-05, No Iterations 4
bounding k, min: 0 max: 0.0808131 average: 0.0253746
ExecutionTime = 14.51 s  ClockTime = 15 s

Time = 47

smoothSolver:  Solving for Ux, Initial residual = 0.000261239, Final residual = 1.87462e-05, No Iterations 5
smoothSolver:  Solving for Uy, Initial residual = 0.000520254, Final residual = 4.40621e-05, No Iterations 3
GAMG:  Solving for p, Initial residual = 0.00129676, Final residual = 0.000109099, No Iterations 10
time step continuity errors : sum local = 1.55795e-05, global = -3.02439e-06, cumulative = 0.000259913
smoothSolver:  Solving for ReThetat, Initial residual = 0.000720203, Final residual = 5.42036e-05, No Iterations 2
smoothSolver:  Solving for gammaInt, Initial residual = 0.00561061, Final residual = 0.000119591, No Iterations 1
smoothSolver:  Solving for omega, Initial residual = 8.29312e-07, Final residual = 7.4526e-08, No Iterations 2
smoothSolver:  Solving for k, Initial residual = 0.00118535, Final residual = 7.27634e-05, No Iterations 4
bounding k, min: 0 max: 0.0808277 average: 0.0255473
ExecutionTime = 14.91 s  ClockTime = 15 s

Time = 48

smoothSolver:  Solving for Ux, Initial residual = 0.000248774, Final residual = 1.76931e-05, No Iterations 5
smoothSolver:  Solving for Uy, Initial residual = 0.000504268, Final residual = 4.09608e-05, No Iterations 3
GAMG:  Solving for p, Initial residual = 0.00129323, Final residual = 0.000111628, No Iterations 10
time step continuity errors : sum local = 1.5967e-05, global = -2.84089e-06, cumulative = 0.000257072
smoothSolver:  Solving for ReThetat, Initial residual = 0.00066422, Final residual = 5.19306e-05, No Iterations 2
smoothSolver:  Solving for gammaInt, Initial residual = 0.00664575, Final residual = 0.000171203, No Iterations 1
smoothSolver:  Solving for omega, Initial residual = 7.81899e-07, Final residual = 7.02713e-08, No Iterations 2
smoothSolver:  Solving for k, Initial residual = 0.00127095, Final residual = 8.01637e-05, No Iterations 4
bounding k, min: 0 max: 0.0808427 average: 0.0257361
ExecutionTime = 15.26 s  ClockTime = 16 s

Time = 49

smoothSolver:  Solving for Ux, Initial residual = 0.000239478, Final residual = 1.66656e-05, No Iterations 5
smoothSolver:  Solving for Uy, Initial residual = 0.000489742, Final residual = 3.78823e-05, No Iterations 3
GAMG:  Solving for p, Initial residual = 0.00130116, Final residual = 0.000110019, No Iterations 10
time step continuity errors : sum local = 1.57309e-05, global = -2.54659e-06, cumulative = 0.000254525
smoothSolver:  Solving for ReThetat, Initial residual = 0.000663105, Final residual = 4.98702e-05, No Iterations 2
smoothSolver:  Solving for gammaInt, Initial residual = 0.0139365, Final residual = 0.00033518, No Iterations 1
smoothSolver:  Solving for omega, Initial residual = 7.57024e-07, Final residual = 6.95785e-08, No Iterations 2
smoothSolver:  Solving for k, Initial residual = 0.00142895, Final residual = 9.06036e-05, No Iterations 4
bounding k, min: 0 max: 0.0808577 average: 0.0259485
ExecutionTime = 15.58 s  ClockTime = 16 s

Time = 50

smoothSolver:  Solving for Ux, Initial residual = 0.000233858, Final residual = 1.56992e-05, No Iterations 5
smoothSolver:  Solving for Uy, Initial residual = 0.000474607, Final residual = 3.48583e-05, No Iterations 3
GAMG:  Solving for p, Initial residual = 0.00128137, Final residual = 0.000107729, No Iterations 10
time step continuity errors : sum local = 1.53842e-05, global = -2.28799e-06, cumulative = 0.000252237
smoothSolver:  Solving for ReThetat, Initial residual = 0.000715704, Final residual = 4.80037e-05, No Iterations 2
smoothSolver:  Solving for gammaInt, Initial residual = 0.00847956, Final residual = 0.000126104, No Iterations 1
smoothSolver:  Solving for omega, Initial residual = 7.80516e-07, Final residual = 7.45231e-08, No Iterations 2
smoothSolver:  Solving for k, Initial residual = 0.00150388, Final residual = 9.86384e-05, No Iterations 4
bounding k, min: 0 max: 0.0808726 average: 0.026176
ExecutionTime = 15.97 s  ClockTime = 17 s

Time = 51

smoothSolver:  Solving for Ux, Initial residual = 0.000229501, Final residual = 1.48308e-05, No Iterations 5
smoothSolver:  Solving for Uy, Initial residual = 0.000459402, Final residual = 3.20244e-05, No Iterations 3
GAMG:  Solving for p, Initial residual = 0.00126446, Final residual = 0.000103757, No Iterations 10
time step continuity errors : sum local = 1.47887e-05, global = -2.06207e-06, cumulative = 0.000250175
smoothSolver:  Solving for ReThetat, Initial residual = 0.000788375, Final residual = 4.6214e-05, No Iterations 2
smoothSolver:  Solving for gammaInt, Initial residual = 0.00544903, Final residual = 7.51342e-05, No Iterations 1
smoothSolver:  Solving for omega, Initial residual = 7.99745e-07, Final residual = 2.83357e-08, No Iterations 3
smoothSolver:  Solving for k, Initial residual = 0.00153956, Final residual = 0.00010476, No Iterations 4
bounding k, min: 0 max: 0.0808868 average: 0.0264112
ExecutionTime = 16.34 s  ClockTime = 17 s

Time = 52

smoothSolver:  Solving for Ux, Initial residual = 0.000225385, Final residual = 1.43979e-05, No Iterations 5
smoothSolver:  Solving for Uy, Initial residual = 0.000444076, Final residual = 2.94283e-05, No Iterations 3
GAMG:  Solving for p, Initial residual = 0.00124462, Final residual = 0.000102703, No Iterations 10
time step continuity errors : sum local = 1.46198e-05, global = -1.94564e-06, cumulative = 0.000248229
smoothSolver:  Solving for ReThetat, Initial residual = 0.000831311, Final residual = 4.44634e-05, No Iterations 2
smoothSolver:  Solving for gammaInt, Initial residual = 0.00704379, Final residual = 0.000198697, No Iterations 1
smoothSolver:  Solving for omega, Initial residual = 7.54252e-07, Final residual = 2.90363e-08, No Iterations 3
smoothSolver:  Solving for k, Initial residual = 0.00162788, Final residual = 0.000113387, No Iterations 4
bounding k, min: 0 max: 0.0809003 average: 0.0266622
ExecutionTime = 16.71 s  ClockTime = 17 s

Time = 53

smoothSolver:  Solving for Ux, Initial residual = 0.000224756, Final residual = 1.43193e-05, No Iterations 5
smoothSolver:  Solving for Uy, Initial residual = 0.000429062, Final residual = 2.71382e-05, No Iterations 3
GAMG:  Solving for p, Initial residual = 0.0012804, Final residual = 0.000100736, No Iterations 10
time step continuity errors : sum local = 1.43291e-05, global = -1.86194e-06, cumulative = 0.000246367
smoothSolver:  Solving for ReThetat, Initial residual = 0.000840977, Final residual = 4.26759e-05, No Iterations 2
smoothSolver:  Solving for gammaInt, Initial residual = 0.0147333, Final residual = 0.000363194, No Iterations 1
smoothSolver:  Solving for omega, Initial residual = 7.9017e-07, Final residual = 3.20299e-08, No Iterations 3
smoothSolver:  Solving for k, Initial residual = 0.00178883, Final residual = 0.000125464, No Iterations 4
bounding k, min: 0 max: 0.0809127 average: 0.0269354
ExecutionTime = 16.99 s  ClockTime = 18 s

Time = 54

smoothSolver:  Solving for Ux, Initial residual = 0.000228537, Final residual = 1.47582e-05, No Iterations 5
smoothSolver:  Solving for Uy, Initial residual = 0.000414319, Final residual = 2.5248e-05, No Iterations 3
GAMG:  Solving for p, Initial residual = 0.00123782, Final residual = 0.000101178, No Iterations 10
time step continuity errors : sum local = 1.44029e-05, global = -1.81223e-06, cumulative = 0.000244555
smoothSolver:  Solving for ReThetat, Initial residual = 0.000822053, Final residual = 4.09972e-05, No Iterations 2
smoothSolver:  Solving for gammaInt, Initial residual = 0.00830669, Final residual = 0.000125829, No Iterations 1
smoothSolver:  Solving for omega, Initial residual = 8.55268e-07, Final residual = 3.61631e-08, No Iterations 3
smoothSolver:  Solving for k, Initial residual = 0.00184652, Final residual = 0.000134055, No Iterations 4
bounding k, min: 0 max: 0.0809239 average: 0.0272203
ExecutionTime = 17.33 s  ClockTime = 18 s

Time = 55

smoothSolver:  Solving for Ux, Initial residual = 0.000232167, Final residual = 1.54255e-05, No Iterations 5
smoothSolver:  Solving for Uy, Initial residual = 0.000400284, Final residual = 2.38425e-05, No Iterations 3
GAMG:  Solving for p, Initial residual = 0.00123257, Final residual = 9.98283e-05, No Iterations 10
time step continuity errors : sum local = 1.42432e-05, global = -1.76706e-06, cumulative = 0.000242788
smoothSolver:  Solving for ReThetat, Initial residual = 0.000779845, Final residual = 3.94367e-05, No Iterations 2
smoothSolver:  Solving for gammaInt, Initial residual = 0.00599923, Final residual = 0.000108408, No Iterations 1
smoothSolver:  Solving for omega, Initial residual = 9.05381e-07, Final residual = 3.97112e-08, No Iterations 3
smoothSolver:  Solving for k, Initial residual = 0.00187966, Final residual = 0.000140898, No Iterations 4
bounding k, min: 0 max: 0.0809337 average: 0.0275149
ExecutionTime = 17.65 s  ClockTime = 18 s

Time = 56

smoothSolver:  Solving for Ux, Initial residual = 0.000235413, Final residual = 1.61154e-05, No Iterations 5
smoothSolver:  Solving for Uy, Initial residual = 0.000386967, Final residual = 2.27787e-05, No Iterations 3
GAMG:  Solving for p, Initial residual = 0.00120999, Final residual = 9.93486e-05, No Iterations 10
time step continuity errors : sum local = 1.42377e-05, global = -1.72109e-06, cumulative = 0.000241067
smoothSolver:  Solving for ReThetat, Initial residual = 0.000720643, Final residual = 3.79876e-05, No Iterations 2
smoothSolver:  Solving for gammaInt, Initial residual = 0.0085247, Final residual = 0.000293386, No Iterations 1
smoothSolver:  Solving for omega, Initial residual = 9.52611e-07, Final residual = 4.2269e-08, No Iterations 3
smoothSolver:  Solving for k, Initial residual = 0.00199389, Final residual = 0.000151748, No Iterations 4
bounding k, min: 0 max: 0.0820061 average: 0.0278254
ExecutionTime = 17.98 s  ClockTime = 19 s

Time = 57

smoothSolver:  Solving for Ux, Initial residual = 0.000242196, Final residual = 1.69445e-05, No Iterations 5
smoothSolver:  Solving for Uy, Initial residual = 0.000373936, Final residual = 2.19617e-05, No Iterations 3
GAMG:  Solving for p, Initial residual = 0.00122773, Final residual = 9.8071e-05, No Iterations 10
time step continuity errors : sum local = 1.41441e-05, global = -1.67694e-06, cumulative = 0.00023939
smoothSolver:  Solving for ReThetat, Initial residual = 0.000650198, Final residual = 3.66118e-05, No Iterations 2
smoothSolver:  Solving for gammaInt, Initial residual = 0.0132255, Final residual = 0.000316189, No Iterations 1
smoothSolver:  Solving for omega, Initial residual = 1.00827e-06, Final residual = 4.49621e-08, No Iterations 3
smoothSolver:  Solving for k, Initial residual = 0.00212219, Final residual = 0.000163887, No Iterations 4
bounding k, min: 0 max: 0.0854649 average: 0.0281536
ExecutionTime = 18.34 s  ClockTime = 19 s

Time = 58

smoothSolver:  Solving for Ux, Initial residual = 0.000249289, Final residual = 1.78495e-05, No Iterations 5
smoothSolver:  Solving for Uy, Initial residual = 0.000361917, Final residual = 2.13564e-05, No Iterations 3
GAMG:  Solving for p, Initial residual = 0.0011877, Final residual = 9.78132e-05, No Iterations 10
time step continuity errors : sum local = 1.42312e-05, global = -1.62841e-06, cumulative = 0.000237762
smoothSolver:  Solving for ReThetat, Initial residual = 0.000573601, Final residual = 3.53556e-05, No Iterations 2
smoothSolver:  Solving for gammaInt, Initial residual = 0.00753879, Final residual = 0.000132138, No Iterations 1
smoothSolver:  Solving for omega, Initial residual = 1.06448e-06, Final residual = 4.80979e-08, No Iterations 3
smoothSolver:  Solving for k, Initial residual = 0.00215394, Final residual = 0.000171136, No Iterations 4
bounding k, min: 0 max: 0.0888453 average: 0.0284877
ExecutionTime = 18.68 s  ClockTime = 19 s

Time = 59

smoothSolver:  Solving for Ux, Initial residual = 0.000253126, Final residual = 1.85852e-05, No Iterations 5
smoothSolver:  Solving for Uy, Initial residual = 0.00035095, Final residual = 2.092e-05, No Iterations 3
GAMG:  Solving for p, Initial residual = 0.00116071, Final residual = 9.80641e-05, No Iterations 10
time step continuity errors : sum local = 1.44254e-05, global = -1.62554e-06, cumulative = 0.000236136
smoothSolver:  Solving for ReThetat, Initial residual = 0.000497386, Final residual = 3.42281e-05, No Iterations 2
smoothSolver:  Solving for gammaInt, Initial residual = 0.00537598, Final residual = 0.000106159, No Iterations 1
smoothSolver:  Solving for omega, Initial residual = 1.09614e-06, Final residual = 4.99024e-08, No Iterations 3
smoothSolver:  Solving for k, Initial residual = 0.00216143, Final residual = 0.000175958, No Iterations 4
bounding k, min: 0 max: 0.0920421 average: 0.028824
ExecutionTime = 18.95 s  ClockTime = 19 s

Time = 60

smoothSolver:  Solving for Ux, Initial residual = 0.000255209, Final residual = 1.91309e-05, No Iterations 5
smoothSolver:  Solving for Uy, Initial residual = 0.00034092, Final residual = 2.05702e-05, No Iterations 3
GAMG:  Solving for p, Initial residual = 0.00113349, Final residual = 9.8293e-05, No Iterations 10
time step continuity errors : sum local = 1.46528e-05, global = -1.6324e-06, cumulative = 0.000234504
smoothSolver:  Solving for ReThetat, Initial residual = 0.000424415, Final residual = 3.32049e-05, No Iterations 2
smoothSolver:  Solving for gammaInt, Initial residual = 0.00932884, Final residual = 0.000352868, No Iterations 1
smoothSolver:  Solving for omega, Initial residual = 1.10599e-06, Final residual = 5.05759e-08, No Iterations 3
smoothSolver:  Solving for k, Initial residual = 0.00227059, Final residual = 0.000186577, No Iterations 4
bounding k, min: 0 max: 0.0951495 average: 0.0291719
ExecutionTime = 19.25 s  ClockTime = 20 s

Time = 61

smoothSolver:  Solving for Ux, Initial residual = 0.000257139, Final residual = 1.97656e-05, No Iterations 5
smoothSolver:  Solving for Uy, Initial residual = 0.000331067, Final residual = 2.02449e-05, No Iterations 3
GAMG:  Solving for p, Initial residual = 0.00110091, Final residual = 9.7435e-05, No Iterations 10
time step continuity errors : sum local = 1.47477e-05, global = -1.62186e-06, cumulative = 0.000232882
smoothSolver:  Solving for ReThetat, Initial residual = 0.000357092, Final residual = 3.22817e-05, No Iterations 2
smoothSolver:  Solving for gammaInt, Initial residual = 0.0111348, Final residual = 0.000281291, No Iterations 1
smoothSolver:  Solving for omega, Initial residual = 1.12187e-06, Final residual = 5.18967e-08, No Iterations 3
smoothSolver:  Solving for k, Initial residual = 0.0023436, Final residual = 0.00019537, No Iterations 4
bounding k, min: 0 max: 0.0982601 average: 0.029525
ExecutionTime = 19.59 s  ClockTime = 20 s

Time = 62

smoothSolver:  Solving for Ux, Initial residual = 0.000258481, Final residual = 2.03568e-05, No Iterations 5
smoothSolver:  Solving for Uy, Initial residual = 0.000322024, Final residual = 1.99114e-05, No Iterations 3
GAMG:  Solving for p, Initial residual = 0.00104451, Final residual = 9.49198e-05, No Iterations 10
time step continuity errors : sum local = 1.46167e-05, global = -1.62885e-06, cumulative = 0.000231253
smoothSolver:  Solving for ReThetat, Initial residual = 0.000297001, Final residual = 1.90831e-05, No Iterations 3
smoothSolver:  Solving for gammaInt, Initial residual = 0.00681433, Final residual = 0.00014796, No Iterations 1
smoothSolver:  Solving for omega, Initial residual = 1.13941e-06, Final residual = 5.29335e-08, No Iterations 3
smoothSolver:  Solving for k, Initial residual = 0.00235379, Final residual = 0.000200088, No Iterations 4
bounding k, min: 0 max: 0.101385 average: 0.0298796
ExecutionTime = 20.03 s  ClockTime = 21 s

Time = 63

smoothSolver:  Solving for Ux, Initial residual = 0.000258063, Final residual = 2.07849e-05, No Iterations 5
smoothSolver:  Solving for Uy, Initial residual = 0.000313337, Final residual = 1.94949e-05, No Iterations 3
GAMG:  Solving for p, Initial residual = 0.00101745, Final residual = 9.15042e-05, No Iterations 10
time step continuity errors : sum local = 1.43578e-05, global = -1.57299e-06, cumulative = 0.00022968
smoothSolver:  Solving for ReThetat, Initial residual = 0.000243912, Final residual = 1.85281e-05, No Iterations 3
smoothSolver:  Solving for gammaInt, Initial residual = 0.00500616, Final residual = 0.00011494, No Iterations 1
bounding gammaInt, min: -0.00257109 max: 1.00042 average: 0.822906
smoothSolver:  Solving for omega, Initial residual = 1.13737e-06, Final residual = 5.32326e-08, No Iterations 3
smoothSolver:  Solving for k, Initial residual = 0.00234261, Final residual = 0.000202793, No Iterations 4
bounding k, min: 0 max: 0.104639 average: 0.0302334
ExecutionTime = 20.45 s  ClockTime = 21 s

Time = 64

smoothSolver:  Solving for Ux, Initial residual = 0.000257041, Final residual = 2.10862e-05, No Iterations 5
smoothSolver:  Solving for Uy, Initial residual = 0.000305353, Final residual = 1.89992e-05, No Iterations 3
GAMG:  Solving for p, Initial residual = 0.000978936, Final residual = 8.74188e-05, No Iterations 10
time step continuity errors : sum local = 1.39982e-05, global = -1.50885e-06, cumulative = 0.000228171
smoothSolver:  Solving for ReThetat, Initial residual = 0.000200293, Final residual = 1.80309e-05, No Iterations 3
smoothSolver:  Solving for gammaInt, Initial residual = 0.00446098, Final residual = 0.000142581, No Iterations 1
smoothSolver:  Solving for omega, Initial residual = 1.12286e-06, Final residual = 5.31906e-08, No Iterations 3
smoothSolver:  Solving for k, Initial residual = 0.00233606, Final residual = 0.000205411, No Iterations 4
bounding k, min: 0 max: 0.107692 average: 0.0305845
ExecutionTime = 20.86 s  ClockTime = 21 s

Time = 65

smoothSolver:  Solving for Ux, Initial residual = 0.000257407, Final residual = 2.13516e-05, No Iterations 5
smoothSolver:  Solving for Uy, Initial residual = 0.000297823, Final residual = 1.8396e-05, No Iterations 3
GAMG:  Solving for p, Initial residual = 0.000936481, Final residual = 8.36914e-05, No Iterations 10
time step continuity errors : sum local = 1.36896e-05, global = -1.44591e-06, cumulative = 0.000226725
smoothSolver:  Solving for ReThetat, Initial residual = 0.000165644, Final residual = 1.11592e-05, No Iterations 4
smoothSolver:  Solving for gammaInt, Initial residual = 0.0114123, Final residual = 0.000436175, No Iterations 1
bounding gammaInt, min: -0.00634991 max: 1.00052 average: 0.825158
smoothSolver:  Solving for omega, Initial residual = 1.10871e-06, Final residual = 5.30213e-08, No Iterations 3
smoothSolver:  Solving for k, Initial residual = 0.00243095, Final residual = 0.000214682, No Iterations 4
bounding k, min: 0 max: 0.110663 average: 0.0309399
ExecutionTime = 21.25 s  ClockTime = 22 s

Time = 66

smoothSolver:  Solving for Ux, Initial residual = 0.000259497, Final residual = 2.17598e-05, No Iterations 5
smoothSolver:  Solving for Uy, Initial residual = 0.000291213, Final residual = 1.76895e-05, No Iterations 3
GAMG:  Solving for p, Initial residual = 0.000886491, Final residual = 8.04458e-05, No Iterations 10
time step continuity errors : sum local = 1.34532e-05, global = -1.3933e-06, cumulative = 0.000225332
smoothSolver:  Solving for ReThetat, Initial residual = 0.000138996, Final residual = 1.08635e-05, No Iterations 4
smoothSolver:  Solving for gammaInt, Initial residual = 0.00699065, Final residual = 0.000166023, No Iterations 1
smoothSolver:  Solving for omega, Initial residual = 1.10637e-06, Final residual = 5.36449e-08, No Iterations 3
smoothSolver:  Solving for k, Initial residual = 0.00243016, Final residual = 0.000218014, No Iterations 4
bounding k, min: 0 max: 0.113655 average: 0.0312902
ExecutionTime = 21.63 s  ClockTime = 22 s

Time = 67

smoothSolver:  Solving for Ux, Initial residual = 0.000260957, Final residual = 2.20879e-05, No Iterations 5
smoothSolver:  Solving for Uy, Initial residual = 0.000284995, Final residual = 1.68847e-05, No Iterations 3
GAMG:  Solving for p, Initial residual = 0.00084592, Final residual = 7.79384e-05, No Iterations 10
time step continuity errors : sum local = 1.33332e-05, global = -1.31552e-06, cumulative = 0.000224016
smoothSolver:  Solving for ReThetat, Initial residual = 0.000122024, Final residual = 1.06038e-05, No Iterations 4
smoothSolver:  Solving for gammaInt, Initial residual = 0.00530636, Final residual = 0.000144875, No Iterations 1
bounding gammaInt, min: -0.0081523 max: 1.00058 average: 0.826933
smoothSolver:  Solving for omega, Initial residual = 1.10096e-06, Final residual = 5.39133e-08, No Iterations 3
smoothSolver:  Solving for k, Initial residual = 0.00242292, Final residual = 0.000220569, No Iterations 4
bounding k, min: 0 max: 0.116598 average: 0.0316395
ExecutionTime = 22.04 s  ClockTime = 23 s

Time = 68

smoothSolver:  Solving for Ux, Initial residual = 0.000261988, Final residual = 2.23356e-05, No Iterations 5
smoothSolver:  Solving for Uy, Initial residual = 0.000279009, Final residual = 1.60048e-05, No Iterations 3
GAMG:  Solving for p, Initial residual = 0.000814433, Final residual = 7.47472e-05, No Iterations 10
time step continuity errors : sum local = 1.3087e-05, global = -1.28486e-06, cumulative = 0.000222732
smoothSolver:  Solving for ReThetat, Initial residual = 0.000118542, Final residual = 1.03682e-05, No Iterations 4
smoothSolver:  Solving for gammaInt, Initial residual = 0.00412131, Final residual = 0.000117018, No Iterations 1
bounding gammaInt, min: -0.00225356 max: 1.00059 average: 0.827773
smoothSolver:  Solving for omega, Initial residual = 1.08782e-06, Final residual = 5.38992e-08, No Iterations 3
smoothSolver:  Solving for k, Initial residual = 0.00239909, Final residual = 0.000221468, No Iterations 4
bounding k, min: 0 max: 0.119438 average: 0.0319853
ExecutionTime = 22.45 s  ClockTime = 23 s

Time = 69

smoothSolver:  Solving for Ux, Initial residual = 0.000262986, Final residual = 2.25298e-05, No Iterations 5
smoothSolver:  Solving for Uy, Initial residual = 0.000272688, Final residual = 1.50895e-05, No Iterations 3
GAMG:  Solving for p, Initial residual = 0.00077895, Final residual = 7.19318e-05, No Iterations 10
time step continuity errors : sum local = 1.28894e-05, global = -1.25719e-06, cumulative = 0.000221474
smoothSolver:  Solving for ReThetat, Initial residual = 0.000124171, Final residual = 1.01519e-05, No Iterations 4
smoothSolver:  Solving for gammaInt, Initial residual = 0.00232878, Final residual = 5.359e-05, No Iterations 1
bounding gammaInt, min: -0.0042552 max: 1.00059 average: 0.828142
smoothSolver:  Solving for omega, Initial residual = 1.06822e-06, Final residual = 5.39851e-08, No Iterations 3
smoothSolver:  Solving for k, Initial residual = 0.00234641, Final residual = 0.000220161, No Iterations 4
bounding k, min: 0 max: 0.122145 average: 0.03232
ExecutionTime = 22.87 s  ClockTime = 23 s

Time = 70

smoothSolver:  Solving for Ux, Initial residual = 0.000263215, Final residual = 2.26347e-05, No Iterations 5
smoothSolver:  Solving for Uy, Initial residual = 0.000266131, Final residual = 1.41707e-05, No Iterations 3
GAMG:  Solving for p, Initial residual = 0.000747349, Final residual = 6.93461e-05, No Iterations 10
time step continuity errors : sum local = 1.27181e-05, global = -1.23134e-06, cumulative = 0.000220243
smoothSolver:  Solving for ReThetat, Initial residual = 0.0001296, Final residual = 9.95392e-06, No Iterations 4
smoothSolver:  Solving for gammaInt, Initial residual = 0.00816579, Final residual = 0.000430318, No Iterations 1
bounding gammaInt, min: -0.00611982 max: 1.00058 average: 0.829374
smoothSolver:  Solving for omega, Initial residual = 1.04436e-06, Final residual = 5.36362e-08, No Iterations 3
smoothSolver:  Solving for k, Initial residual = 0.00240705, Final residual = 0.000226639, No Iterations 4
bounding k, min: 0 max: 0.125255 average: 0.0326534
ExecutionTime = 23.28 s  ClockTime = 24 s

Time = 71

smoothSolver:  Solving for Ux, Initial residual = 0.000264064, Final residual = 2.28528e-05, No Iterations 5
smoothSolver:  Solving for Uy, Initial residual = 0.000259545, Final residual = 2.53088e-05, No Iterations 2
GAMG:  Solving for p, Initial residual = 0.000764894, Final residual = 6.49078e-05, No Iterations 10
time step continuity errors : sum local = 1.21808e-05, global = -1.15109e-06, cumulative = 0.000219092
smoothSolver:  Solving for ReThetat, Initial residual = 0.000133966, Final residual = 9.77638e-06, No Iterations 4
smoothSolver:  Solving for gammaInt, Initial residual = 0.00669036, Final residual = 0.000198397, No Iterations 1
smoothSolver:  Solving for omega, Initial residual = 1.03688e-06, Final residual = 5.39875e-08, No Iterations 3
smoothSolver:  Solving for k, Initial residual = 0.00240071, Final residual = 0.000228546, No Iterations 4
bounding k, min: 0 max: 0.128263 average: 0.0329808
ExecutionTime = 23.7 s  ClockTime = 24 s

Time = 72

smoothSolver:  Solving for Ux, Initial residual = 0.00026515, Final residual = 2.30464e-05, No Iterations 5
smoothSolver:  Solving for Uy, Initial residual = 0.000255449, Final residual = 2.44831e-05, No Iterations 2
GAMG:  Solving for p, Initial residual = 0.000696279, Final residual = 6.30042e-05, No Iterations 10
time step continuity errors : sum local = 1.20896e-05, global = -1.16267e-06, cumulative = 0.000217929
smoothSolver:  Solving for ReThetat, Initial residual = 0.00013739, Final residual = 9.61983e-06, No Iterations 4
smoothSolver:  Solving for gammaInt, Initial residual = 0.0051529, Final residual = 0.000171274, No Iterations 1
smoothSolver:  Solving for omega, Initial residual = 1.03099e-06, Final residual = 5.44731e-08, No Iterations 3
smoothSolver:  Solving for k, Initial residual = 0.00239077, Final residual = 0.00023015, No Iterations 4
bounding k, min: 0 max: 0.131188 average: 0.0333075
ExecutionTime = 24.17 s  ClockTime = 25 s

Time = 73

smoothSolver:  Solving for Ux, Initial residual = 0.000265785, Final residual = 2.32105e-05, No Iterations 5
smoothSolver:  Solving for Uy, Initial residual = 0.000250065, Final residual = 2.34652e-05, No Iterations 2
GAMG:  Solving for p, Initial residual = 0.000679316, Final residual = 6.12156e-05, No Iterations 10
time step continuity errors : sum local = 1.20046e-05, global = -1.17105e-06, cumulative = 0.000216758
smoothSolver:  Solving for ReThetat, Initial residual = 0.000140034, Final residual = 9.48324e-06, No Iterations 4
smoothSolver:  Solving for gammaInt, Initial residual = 0.0039896, Final residual = 0.000128669, No Iterations 1
smoothSolver:  Solving for omega, Initial residual = 1.02675e-06, Final residual = 5.49548e-08, No Iterations 3
smoothSolver:  Solving for k, Initial residual = 0.00236572, Final residual = 0.000230346, No Iterations 4
bounding k, min: 0 max: 0.134139 average: 0.0336311
ExecutionTime = 24.54 s  ClockTime = 25 s

Time = 74

smoothSolver:  Solving for Ux, Initial residual = 0.000266044, Final residual = 2.3334e-05, No Iterations 5
smoothSolver:  Solving for Uy, Initial residual = 0.000244622, Final residual = 2.24269e-05, No Iterations 2
GAMG:  Solving for p, Initial residual = 0.00065682, Final residual = 5.89872e-05, No Iterations 10
time step continuity errors : sum local = 1.1818e-05, global = -1.15989e-06, cumulative = 0.000215598
smoothSolver:  Solving for ReThetat, Initial residual = 0.000142163, Final residual = 9.36523e-06, No Iterations 4
smoothSolver:  Solving for gammaInt, Initial residual = 0.00208783, Final residual = 5.93122e-05, No Iterations 1
smoothSolver:  Solving for omega, Initial residual = 1.02005e-06, Final residual = 5.5286e-08, No Iterations 3
smoothSolver:  Solving for k, Initial residual = 0.0023145, Final residual = 0.000228444, No Iterations 4
bounding k, min: 0 max: 0.137065 average: 0.0339459
ExecutionTime = 25 s  ClockTime = 26 s

Time = 75

smoothSolver:  Solving for Ux, Initial residual = 0.000265689, Final residual = 2.33843e-05, No Iterations 5
smoothSolver:  Solving for Uy, Initial residual = 0.000239308, Final residual = 2.14378e-05, No Iterations 2
GAMG:  Solving for p, Initial residual = 0.000638224, Final residual = 5.66763e-05, No Iterations 10
time step continuity errors : sum local = 1.15944e-05, global = -1.143e-06, cumulative = 0.000214455
smoothSolver:  Solving for ReThetat, Initial residual = 0.000143804, Final residual = 1.42867e-05, No Iterations 3
smoothSolver:  Solving for gammaInt, Initial residual = 0.00136413, Final residual = 4.25793e-05, No Iterations 1
smoothSolver:  Solving for omega, Initial residual = 1.00695e-06, Final residual = 5.53249e-08, No Iterations 3
smoothSolver:  Solving for k, Initial residual = 0.00225535, Final residual = 0.00022553, No Iterations 4
bounding k, min: 0 max: 0.139915 average: 0.0342502
ExecutionTime = 25.45 s  ClockTime = 26 s

Time = 76

smoothSolver:  Solving for Ux, Initial residual = 0.000264584, Final residual = 2.33624e-05, No Iterations 5
smoothSolver:  Solving for Uy, Initial residual = 0.000234109, Final residual = 2.05759e-05, No Iterations 2
GAMG:  Solving for p, Initial residual = 0.000621685, Final residual = 5.4349e-05, No Iterations 10
time step continuity errors : sum local = 1.13456e-05, global = -1.11767e-06, cumulative = 0.000213338
smoothSolver:  Solving for ReThetat, Initial residual = 0.000145353, Final residual = 1.4219e-05, No Iterations 3
smoothSolver:  Solving for gammaInt, Initial residual = 0.0055781, Final residual = 0.000388762, No Iterations 1
bounding gammaInt, min: -0.00646936 max: 1.00051 average: 0.833672
smoothSolver:  Solving for omega, Initial residual = 9.88155e-07, Final residual = 5.50639e-08, No Iterations 3
smoothSolver:  Solving for k, Initial residual = 0.00228306, Final residual = 0.000130187, No Iterations 5
bounding k, min: 0 max: 0.142769 average: 0.0345669
ExecutionTime = 25.86 s  ClockTime = 26 s

Time = 77

smoothSolver:  Solving for Ux, Initial residual = 0.000264184, Final residual = 2.34518e-05, No Iterations 5
smoothSolver:  Solving for Uy, Initial residual = 0.000229313, Final residual = 1.98569e-05, No Iterations 2
GAMG:  Solving for p, Initial residual = 0.000609895, Final residual = 5.27244e-05, No Iterations 10
time step continuity errors : sum local = 1.12238e-05, global = -1.0921e-06, cumulative = 0.000212246
smoothSolver:  Solving for ReThetat, Initial residual = 0.000146912, Final residual = 1.41744e-05, No Iterations 3
smoothSolver:  Solving for gammaInt, Initial residual = 0.00672845, Final residual = 0.000259577, No Iterations 1
bounding gammaInt, min: -0.00396269 max: 1.00049 average: 0.834472
smoothSolver:  Solving for omega, Initial residual = 9.85782e-07, Final residual = 5.5289e-08, No Iterations 3
smoothSolver:  Solving for k, Initial residual = 0.00227841, Final residual = 0.00013092, No Iterations 5
bounding k, min: 0 max: 0.145494 average: 0.0348785
ExecutionTime = 26.3 s  ClockTime = 27 s

Time = 78

smoothSolver:  Solving for Ux, Initial residual = 0.000264051, Final residual = 2.35312e-05, No Iterations 5
smoothSolver:  Solving for Uy, Initial residual = 0.000225432, Final residual = 1.92575e-05, No Iterations 2
GAMG:  Solving for p, Initial residual = 0.000595288, Final residual = 5.10437e-05, No Iterations 10
time step continuity errors : sum local = 1.10759e-05, global = -1.0671e-06, cumulative = 0.000211179
smoothSolver:  Solving for ReThetat, Initial residual = 0.000148259, Final residual = 1.41426e-05, No Iterations 3
smoothSolver:  Solving for gammaInt, Initial residual = 0.00534006, Final residual = 0.000212725, No Iterations 1
bounding gammaInt, min: -0.00695248 max: 1.00048 average: 0.835555
smoothSolver:  Solving for omega, Initial residual = 9.82152e-07, Final residual = 5.55555e-08, No Iterations 3
smoothSolver:  Solving for k, Initial residual = 0.00226551, Final residual = 0.000131344, No Iterations 5
bounding k, min: 0 max: 0.148141 average: 0.0351899
ExecutionTime = 26.7 s  ClockTime = 27 s

Time = 79

smoothSolver:  Solving for Ux, Initial residual = 0.000263549, Final residual = 2.35845e-05, No Iterations 5
smoothSolver:  Solving for Uy, Initial residual = 0.00022207, Final residual = 1.87324e-05, No Iterations 2
GAMG:  Solving for p, Initial residual = 0.000583043, Final residual = 4.97044e-05, No Iterations 10
time step continuity errors : sum local = 1.0987e-05, global = -1.05356e-06, cumulative = 0.000210125
smoothSolver:  Solving for ReThetat, Initial residual = 0.000149308, Final residual = 1.412e-05, No Iterations 3
smoothSolver:  Solving for gammaInt, Initial residual = 0.00359606, Final residual = 0.000127378, No Iterations 1
smoothSolver:  Solving for omega, Initial residual = 9.77897e-07, Final residual = 5.5973e-08, No Iterations 3
smoothSolver:  Solving for k, Initial residual = 0.00222686, Final residual = 0.000130553, No Iterations 5
bounding k, min: 0 max: 0.150785 average: 0.0354963
ExecutionTime = 27.08 s  ClockTime = 28 s

Time = 80

smoothSolver:  Solving for Ux, Initial residual = 0.000262555, Final residual = 2.35817e-05, No Iterations 5
smoothSolver:  Solving for Uy, Initial residual = 0.000218898, Final residual = 1.82776e-05, No Iterations 2
GAMG:  Solving for p, Initial residual = 0.000567996, Final residual = 4.82006e-05, No Iterations 10
time step continuity errors : sum local = 1.08473e-05, global = -1.03903e-06, cumulative = 0.000209086
smoothSolver:  Solving for ReThetat, Initial residual = 0.000150092, Final residual = 1.41024e-05, No Iterations 3
smoothSolver:  Solving for gammaInt, Initial residual = 0.00174934, Final residual = 6.17446e-05, No Iterations 1
smoothSolver:  Solving for omega, Initial residual = 9.67658e-07, Final residual = 5.61839e-08, No Iterations 3
[...]
smoothSolver:  Solving for Uy, Initial residual = 1.18848e-06, Final residual = 1.07399e-07, No Iterations 2
GAMG:  Solving for p, Initial residual = 5.88683e-06, Final residual = 8.503e-07, No Iterations 6
time step continuity errors : sum local = 3.28404e-07, global = -6.62442e-08, cumulative = 0.000130011
smoothSolver:  Solving for ReThetat, Initial residual = 1.33757e-05, Final residual = 1.14513e-06, No Iterations 6
smoothSolver:  Solving for gammaInt, Initial residual = 8.87374e-06, Final residual = 5.27325e-07, No Iterations 1
smoothSolver:  Solving for omega, Initial residual = 9.9313e-09, Final residual = 9.9313e-09, No Iterations 0
smoothSolver:  Solving for k, Initial residual = 4.61872e-06, Final residual = 3.03387e-07, No Iterations 5
bounding k, min: 0 max: 0.187313 average: 0.0412321
ExecutionTime = 82.74 s  ClockTime = 83 s

Time = 262

smoothSolver:  Solving for Ux, Initial residual = 8.31759e-07, Final residual = 5.55969e-08, No Iterations 6
smoothSolver:  Solving for Uy, Initial residual = 1.16033e-06, Final residual = 1.04377e-07, No Iterations 2
GAMG:  Solving for p, Initial residual = 6.05642e-06, Final residual = 8.66664e-07, No Iterations 6
time step continuity errors : sum local = 3.34733e-07, global = -7.02695e-08, cumulative = 0.000129941
smoothSolver:  Solving for ReThetat, Initial residual = 1.3329e-05, Final residual = 1.13733e-06, No Iterations 6
smoothSolver:  Solving for gammaInt, Initial residual = 1.42443e-05, Final residual = 3.1106e-07, No Iterations 2
bounding gammaInt, min: -0.000734721 max: 1.00043 average: 0.845103
smoothSolver:  Solving for omega, Initial residual = 1.09887e-08, Final residual = 4.5757e-09, No Iterations 1
smoothSolver:  Solving for k, Initial residual = 4.69115e-06, Final residual = 3.19226e-07, No Iterations 5
bounding k, min: 0 max: 0.187314 average: 0.0412316
ExecutionTime = 82.99 s  ClockTime = 84 s

Time = 263

smoothSolver:  Solving for Ux, Initial residual = 8.41799e-07, Final residual = 5.55122e-08, No Iterations 6
smoothSolver:  Solving for Uy, Initial residual = 1.13334e-06, Final residual = 1.01015e-07, No Iterations 2
GAMG:  Solving for p, Initial residual = 6.35244e-06, Final residual = 9.53932e-07, No Iterations 6
time step continuity errors : sum local = 3.68447e-07, global = -8.83486e-08, cumulative = 0.000129852
smoothSolver:  Solving for ReThetat, Initial residual = 1.30893e-05, Final residual = 1.12987e-06, No Iterations 6
smoothSolver:  Solving for gammaInt, Initial residual = 9.30863e-06, Final residual = 4.25911e-07, No Iterations 1
smoothSolver:  Solving for omega, Initial residual = 6.39938e-09, Final residual = 6.39938e-09, No Iterations 0
smoothSolver:  Solving for k, Initial residual = 4.76143e-06, Final residual = 3.1961e-07, No Iterations 5
bounding k, min: 0 max: 0.187315 average: 0.0412311
ExecutionTime = 83.25 s  ClockTime = 84 s

Time = 264

smoothSolver:  Solving for Ux, Initial residual = 8.17051e-07, Final residual = 5.41226e-08, No Iterations 6
smoothSolver:  Solving for Uy, Initial residual = 1.10789e-06, Final residual = 9.98592e-08, No Iterations 2
GAMG:  Solving for p, Initial residual = 6.59585e-06, Final residual = 7.85812e-07, No Iterations 8
time step continuity errors : sum local = 3.03519e-07, global = -7.78465e-08, cumulative = 0.000129775
smoothSolver:  Solving for ReThetat, Initial residual = 1.28602e-05, Final residual = 1.12112e-06, No Iterations 6
smoothSolver:  Solving for gammaInt, Initial residual = 7.12693e-06, Final residual = 2.73174e-07, No Iterations 1
smoothSolver:  Solving for omega, Initial residual = 7.26014e-09, Final residual = 7.26014e-09, No Iterations 0
smoothSolver:  Solving for k, Initial residual = 4.60058e-06, Final residual = 3.05805e-07, No Iterations 5
bounding k, min: 0 max: 0.187316 average: 0.0412306
ExecutionTime = 83.52 s  ClockTime = 84 s

Time = 265

smoothSolver:  Solving for Ux, Initial residual = 8.01549e-07, Final residual = 5.26954e-08, No Iterations 6
smoothSolver:  Solving for Uy, Initial residual = 1.14351e-06, Final residual = 1.02618e-07, No Iterations 2
GAMG:  Solving for p, Initial residual = 6.92526e-06, Final residual = 8.12326e-07, No Iterations 8
time step continuity errors : sum local = 3.13767e-07, global = -8.34261e-08, cumulative = 0.000129691
smoothSolver:  Solving for ReThetat, Initial residual = 1.27634e-05, Final residual = 1.11269e-06, No Iterations 6
smoothSolver:  Solving for gammaInt, Initial residual = 7.18379e-06, Final residual = 2.62946e-07, No Iterations 1
bounding gammaInt, min: -0.000669375 max: 1.00043 average: 0.845101
smoothSolver:  Solving for omega, Initial residual = 8.38785e-09, Final residual = 8.38785e-09, No Iterations 0
smoothSolver:  Solving for k, Initial residual = 4.50025e-06, Final residual = 2.94055e-07, No Iterations 5
bounding k, min: 0 max: 0.187318 average: 0.0412301
ExecutionTime = 83.79 s  ClockTime = 84 s

Time = 266

smoothSolver:  Solving for Ux, Initial residual = 7.87693e-07, Final residual = 7.83116e-08, No Iterations 5
smoothSolver:  Solving for Uy, Initial residual = 1.18675e-06, Final residual = 1.04727e-07, No Iterations 2
GAMG:  Solving for p, Initial residual = 7.25545e-06, Final residual = 9.00023e-07, No Iterations 8
time step continuity errors : sum local = 3.47648e-07, global = -9.36449e-08, cumulative = 0.000129597
smoothSolver:  Solving for ReThetat, Initial residual = 1.27251e-05, Final residual = 1.10459e-06, No Iterations 6
smoothSolver:  Solving for gammaInt, Initial residual = 7.33251e-06, Final residual = 2.8877e-07, No Iterations 1
smoothSolver:  Solving for omega, Initial residual = 9.64011e-09, Final residual = 9.64011e-09, No Iterations 0
smoothSolver:  Solving for k, Initial residual = 4.38351e-06, Final residual = 2.83266e-07, No Iterations 5
bounding k, min: 0 max: 0.187319 average: 0.0412296
ExecutionTime = 84.07 s  ClockTime = 85 s

Time = 267

smoothSolver:  Solving for Ux, Initial residual = 7.73195e-07, Final residual = 7.61233e-08, No Iterations 5
smoothSolver:  Solving for Uy, Initial residual = 1.24273e-06, Final residual = 1.06458e-07, No Iterations 2
GAMG:  Solving for p, Initial residual = 7.4203e-06, Final residual = 8.31602e-07, No Iterations 10
time step continuity errors : sum local = 3.21226e-07, global = -8.75364e-08, cumulative = 0.00012951
smoothSolver:  Solving for ReThetat, Initial residual = 1.2698e-05, Final residual = 1.09673e-06, No Iterations 6
smoothSolver:  Solving for gammaInt, Initial residual = 6.53837e-06, Final residual = 2.49396e-07, No Iterations 1
smoothSolver:  Solving for omega, Initial residual = 1.08658e-08, Final residual = 4.40719e-09, No Iterations 1
smoothSolver:  Solving for k, Initial residual = 4.28654e-06, Final residual = 2.8618e-07, No Iterations 5
bounding k, min: 0 max: 0.18732 average: 0.0412292
ExecutionTime = 84.36 s  ClockTime = 85 s

Time = 268

smoothSolver:  Solving for Ux, Initial residual = 7.89362e-07, Final residual = 7.62128e-08, No Iterations 5
smoothSolver:  Solving for Uy, Initial residual = 1.32812e-06, Final residual = 1.08935e-07, No Iterations 2
GAMG:  Solving for p, Initial residual = 7.39414e-06, Final residual = 9.27358e-07, No Iterations 10
time step continuity errors : sum local = 3.58219e-07, global = -9.64752e-08, cumulative = 0.000129413
smoothSolver:  Solving for ReThetat, Initial residual = 1.25159e-05, Final residual = 1.08923e-06, No Iterations 6
smoothSolver:  Solving for gammaInt, Initial residual = 7.61988e-06, Final residual = 2.62187e-07, No Iterations 1
bounding gammaInt, min: -0.000575933 max: 1.00043 average: 0.845098
smoothSolver:  Solving for omega, Initial residual = 6.19306e-09, Final residual = 6.19306e-09, No Iterations 0
smoothSolver:  Solving for k, Initial residual = 4.3536e-06, Final residual = 2.9042e-07, No Iterations 5
bounding k, min: 0 max: 0.187322 average: 0.0412287
ExecutionTime = 84.63 s  ClockTime = 85 s

Time = 269

smoothSolver:  Solving for Ux, Initial residual = 7.6902e-07, Final residual = 7.42242e-08, No Iterations 5
smoothSolver:  Solving for Uy, Initial residual = 1.39141e-06, Final residual = 1.11558e-07, No Iterations 2
GAMG:  Solving for p, Initial residual = 7.62359e-06, Final residual = 8.83756e-07, No Iterations 12
time step continuity errors : sum local = 3.41382e-07, global = -8.13538e-08, cumulative = 0.000129332
smoothSolver:  Solving for ReThetat, Initial residual = 1.23433e-05, Final residual = 1.08072e-06, No Iterations 6
smoothSolver:  Solving for gammaInt, Initial residual = 7.19937e-06, Final residual = 2.7927e-07, No Iterations 1
smoothSolver:  Solving for omega, Initial residual = 7.01378e-09, Final residual = 7.01378e-09, No Iterations 0
smoothSolver:  Solving for k, Initial residual = 4.10217e-06, Final residual = 2.70797e-07, No Iterations 5
bounding k, min: 0 max: 0.187323 average: 0.0412282
ExecutionTime = 84.94 s  ClockTime = 85 s

Time = 270

smoothSolver:  Solving for Ux, Initial residual = 7.55617e-07, Final residual = 7.22117e-08, No Iterations 5
smoothSolver:  Solving for Uy, Initial residual = 1.45104e-06, Final residual = 1.13703e-07, No Iterations 2
GAMG:  Solving for p, Initial residual = 7.70287e-06, Final residual = 8.55245e-07, No Iterations 12
time step continuity errors : sum local = 3.30373e-07, global = -4.25485e-08, cumulative = 0.00012929
smoothSolver:  Solving for ReThetat, Initial residual = 1.22533e-05, Final residual = 1.07253e-06, No Iterations 6
smoothSolver:  Solving for gammaInt, Initial residual = 6.34172e-06, Final residual = 2.40296e-07, No Iterations 1
smoothSolver:  Solving for omega, Initial residual = 8.06477e-09, Final residual = 8.06477e-09, No Iterations 0
smoothSolver:  Solving for k, Initial residual = 3.90437e-06, Final residual = 2.55638e-07, No Iterations 5
bounding k, min: 0 max: 0.187324 average: 0.0412277
ExecutionTime = 85.22 s  ClockTime = 86 s

Time = 271

smoothSolver:  Solving for Ux, Initial residual = 7.41304e-07, Final residual = 7.01951e-08, No Iterations 5
smoothSolver:  Solving for Uy, Initial residual = 1.46874e-06, Final residual = 1.13552e-07, No Iterations 2
GAMG:  Solving for p, Initial residual = 7.90126e-06, Final residual = 8.36431e-07, No Iterations 12
time step continuity errors : sum local = 3.23109e-07, global = -2.45455e-08, cumulative = 0.000129265
smoothSolver:  Solving for ReThetat, Initial residual = 1.22037e-05, Final residual = 1.06461e-06, No Iterations 6
smoothSolver:  Solving for gammaInt, Initial residual = 6.44239e-06, Final residual = 2.33675e-07, No Iterations 1
bounding gammaInt, min: -0.000474322 max: 1.00043 average: 0.845096
smoothSolver:  Solving for omega, Initial residual = 9.14289e-09, Final residual = 9.14289e-09, No Iterations 0
smoothSolver:  Solving for k, Initial residual = 3.77928e-06, Final residual = 2.4301e-07, No Iterations 5
bounding k, min: 0 max: 0.187325 average: 0.0412273
ExecutionTime = 85.52 s  ClockTime = 86 s

Time = 272

smoothSolver:  Solving for Ux, Initial residual = 7.24226e-07, Final residual = 6.8097e-08, No Iterations 5
smoothSolver:  Solving for Uy, Initial residual = 1.44832e-06, Final residual = 1.12491e-07, No Iterations 2
GAMG:  Solving for p, Initial residual = 7.89346e-06, Final residual = 8.45571e-07, No Iterations 12
time step continuity errors : sum local = 3.26643e-07, global = -2.12002e-08, cumulative = 0.000129244
smoothSolver:  Solving for ReThetat, Initial residual = 1.21607e-05, Final residual = 1.05693e-06, No Iterations 6
smoothSolver:  Solving for gammaInt, Initial residual = 6.67979e-06, Final residual = 2.64547e-07, No Iterations 1
smoothSolver:  Solving for omega, Initial residual = 1.01641e-08, Final residual = 4.1516e-09, No Iterations 1
smoothSolver:  Solving for k, Initial residual = 3.82646e-06, Final residual = 2.5301e-07, No Iterations 5
bounding k, min: 0 max: 0.187326 average: 0.0412269
ExecutionTime = 85.8 s  ClockTime = 86 s

Time = 273

smoothSolver:  Solving for Ux, Initial residual = 7.34025e-07, Final residual = 6.83281e-08, No Iterations 5
smoothSolver:  Solving for Uy, Initial residual = 1.40177e-06, Final residual = 1.09312e-07, No Iterations 2
GAMG:  Solving for p, Initial residual = 7.32603e-06, Final residual = 8.24661e-07, No Iterations 12
time step continuity errors : sum local = 3.18568e-07, global = -1.99417e-08, cumulative = 0.000129224
smoothSolver:  Solving for ReThetat, Initial residual = 1.2001e-05, Final residual = 1.04958e-06, No Iterations 6
smoothSolver:  Solving for gammaInt, Initial residual = 7.11244e-06, Final residual = 2.55807e-07, No Iterations 1
smoothSolver:  Solving for omega, Initial residual = 5.81297e-09, Final residual = 5.81297e-09, No Iterations 0
smoothSolver:  Solving for k, Initial residual = 3.88765e-06, Final residual = 2.60914e-07, No Iterations 5
bounding k, min: 0 max: 0.187327 average: 0.0412264
ExecutionTime = 86.12 s  ClockTime = 87 s

Time = 274

smoothSolver:  Solving for Ux, Initial residual = 7.04726e-07, Final residual = 6.6538e-08, No Iterations 5
smoothSolver:  Solving for Uy, Initial residual = 1.35622e-06, Final residual = 1.0759e-07, No Iterations 2
GAMG:  Solving for p, Initial residual = 7.11086e-06, Final residual = 9.53412e-07, No Iterations 11
time step continuity errors : sum local = 3.68308e-07, global = 1.87968e-08, cumulative = 0.000129243
smoothSolver:  Solving for ReThetat, Initial residual = 1.18562e-05, Final residual = 1.04142e-06, No Iterations 6
smoothSolver:  Solving for gammaInt, Initial residual = 6.55732e-06, Final residual = 2.36348e-07, No Iterations 1
bounding gammaInt, min: -0.000378959 max: 1.00043 average: 0.845093
smoothSolver:  Solving for omega, Initial residual = 6.48629e-09, Final residual = 6.48629e-09, No Iterations 0
smoothSolver:  Solving for k, Initial residual = 3.60704e-06, Final residual = 2.38385e-07, No Iterations 5
bounding k, min: 0 max: 0.187328 average: 0.041226
ExecutionTime = 86.39 s  ClockTime = 87 s

Time = 275

smoothSolver:  Solving for Ux, Initial residual = 6.83734e-07, Final residual = 6.46886e-08, No Iterations 5
smoothSolver:  Solving for Uy, Initial residual = 1.32498e-06, Final residual = 1.04378e-07, No Iterations 2
GAMG:  Solving for p, Initial residual = 6.96027e-06, Final residual = 9.72268e-07, No Iterations 10
time step continuity errors : sum local = 3.75596e-07, global = -3.58285e-08, cumulative = 0.000129207
smoothSolver:  Solving for ReThetat, Initial residual = 1.17342e-05, Final residual = 1.03354e-06, No Iterations 6
smoothSolver:  Solving for gammaInt, Initial residual = 6.71415e-06, Final residual = 2.65848e-07, No Iterations 1
smoothSolver:  Solving for omega, Initial residual = 7.25622e-09, Final residual = 7.25622e-09, No Iterations 0
smoothSolver:  Solving for k, Initial residual = 3.40275e-06, Final residual = 2.20808e-07, No Iterations 5
bounding k, min: 0 max: 0.187329 average: 0.0412256
ExecutionTime = 86.67 s  ClockTime = 87 s

Time = 276

smoothSolver:  Solving for Ux, Initial residual = 6.61264e-07, Final residual = 6.28223e-08, No Iterations 5
smoothSolver:  Solving for Uy, Initial residual = 1.26201e-06, Final residual = 1.00912e-07, No Iterations 2
GAMG:  Solving for p, Initial residual = 6.86158e-06, Final residual = 8.92962e-07, No Iterations 10
time step continuity errors : sum local = 3.44961e-07, global = -2.40959e-08, cumulative = 0.000129183
smoothSolver:  Solving for ReThetat, Initial residual = 1.16981e-05, Final residual = 1.02591e-06, No Iterations 6
smoothSolver:  Solving for gammaInt, Initial residual = 6.00867e-06, Final residual = 2.30865e-07, No Iterations 1
smoothSolver:  Solving for omega, Initial residual = 8.10715e-09, Final residual = 8.10715e-09, No Iterations 0
smoothSolver:  Solving for k, Initial residual = 3.23134e-06, Final residual = 2.06983e-07, No Iterations 5
bounding k, min: 0 max: 0.18733 average: 0.0412252
ExecutionTime = 86.95 s  ClockTime = 87 s

Time = 277

smoothSolver:  Solving for Ux, Initial residual = 6.40089e-07, Final residual = 6.09812e-08, No Iterations 5
smoothSolver:  Solving for Uy, Initial residual = 1.18659e-06, Final residual = 9.76177e-08, No Iterations 2
GAMG:  Solving for p, Initial residual = 6.65943e-06, Final residual = 8.19226e-07, No Iterations 10
time step continuity errors : sum local = 3.16478e-07, global = -2.20894e-08, cumulative = 0.000129161
smoothSolver:  Solving for ReThetat, Initial residual = 1.16603e-05, Final residual = 1.0185e-06, No Iterations 6
smoothSolver:  Solving for gammaInt, Initial residual = 6.16546e-06, Final residual = 2.2604e-07, No Iterations 1
bounding gammaInt, min: -0.000290261 max: 1.00043 average: 0.845091
smoothSolver:  Solving for omega, Initial residual = 8.96008e-09, Final residual = 8.96008e-09, No Iterations 0
smoothSolver:  Solving for k, Initial residual = 3.14726e-06, Final residual = 1.95405e-07, No Iterations 5
bounding k, min: 0 max: 0.187331 average: 0.0412249
ExecutionTime = 87.23 s  ClockTime = 88 s

Time = 278

smoothSolver:  Solving for Ux, Initial residual = 6.18813e-07, Final residual = 5.90853e-08, No Iterations 5
smoothSolver:  Solving for Uy, Initial residual = 1.11774e-06, Final residual = 9.42048e-08, No Iterations 2
GAMG:  Solving for p, Initial residual = 6.33523e-06, Final residual = 9.55065e-07, No Iterations 8
time step continuity errors : sum local = 3.68956e-07, global = -3.47442e-08, cumulative = 0.000129126
smoothSolver:  Solving for ReThetat, Initial residual = 1.16101e-05, Final residual = 1.01125e-06, No Iterations 6
smoothSolver:  Solving for gammaInt, Initial residual = 6.39542e-06, Final residual = 2.56354e-07, No Iterations 1
smoothSolver:  Solving for omega, Initial residual = 9.72704e-09, Final residual = 9.72704e-09, No Iterations 0
smoothSolver:  Solving for k, Initial residual = 3.05415e-06, Final residual = 1.8642e-07, No Iterations 5
bounding k, min: 0 max: 0.187332 average: 0.0412246
ExecutionTime = 87.48 s  ClockTime = 88 s

Time = 279

smoothSolver:  Solving for Ux, Initial residual = 5.96374e-07, Final residual = 5.7232e-08, No Iterations 5
smoothSolver:  Solving for Uy, Initial residual = 1.04079e-06, Final residual = 8.96948e-08, No Iterations 2
GAMG:  Solving for p, Initial residual = 5.96528e-06, Final residual = 8.96825e-07, No Iterations 8
time step continuity errors : sum local = 3.46458e-07, global = -3.57775e-08, cumulative = 0.00012909
smoothSolver:  Solving for ReThetat, Initial residual = 1.15561e-05, Final residual = 1.00415e-06, No Iterations 6
smoothSolver:  Solving for gammaInt, Initial residual = 5.70789e-06, Final residual = 2.21134e-07, No Iterations 1
smoothSolver:  Solving for omega, Initial residual = 1.04825e-08, Final residual = 4.29595e-09, No Iterations 1
smoothSolver:  Solving for k, Initial residual = 3.08113e-06, Final residual = 1.99584e-07, No Iterations 5
bounding k, min: 0 max: 0.187333 average: 0.0412242
ExecutionTime = 87.75 s  ClockTime = 88 s

Time = 280

smoothSolver:  Solving for Ux, Initial residual = 6.09052e-07, Final residual = 5.77217e-08, No Iterations 5
smoothSolver:  Solving for Uy, Initial residual = 9.86674e-07, Final residual = 8.53063e-08, No Iterations 2
GAMG:  Solving for p, Initial residual = 5.48588e-06, Final residual = 7.9246e-07, No Iterations 8
time step continuity errors : sum local = 3.06142e-07, global = -3.40828e-08, cumulative = 0.000129056
smoothSolver:  Solving for ReThetat, Initial residual = 1.1377e-05, Final residual = 9.97337e-07, No Iterations 6
smoothSolver:  Solving for gammaInt, Initial residual = 7.29377e-06, Final residual = 2.51701e-07, No Iterations 1
bounding gammaInt, min: -0.000229054 max: 1.00043 average: 0.845089
smoothSolver:  Solving for omega, Initial residual = 5.92808e-09, Final residual = 5.92808e-09, No Iterations 0
smoothSolver:  Solving for k, Initial residual = 3.23064e-06, Final residual = 2.12593e-07, No Iterations 5
bounding k, min: 0 max: 0.187334 average: 0.0412239
ExecutionTime = 88.02 s  ClockTime = 89 s


SIMPLE solution converged in 280 iterations

End

